17
     RDKit          3D

 61 64  0  0  1  0  0  0  0  0999 V2000
  -13.4898    0.6927  -23.5150 C   0  0  0  0  0  0  0  0  0  0  0  0
  -13.6137    2.0669  -23.3311 C   0  0  0  0  0  0  0  0  0  0  0  0
  -14.3483    2.8320  -24.2443 C   0  0  0  0  0  0  0  0  0  0  0  0
  -14.9555    2.2117  -25.3430 C   0  0  0  0  0  0  0  0  0  0  0  0
  -14.8078    0.8431  -25.5378 C   0  0  0  0  0  0  0  0  0  0  0  0
  -14.0829    0.0885  -24.6204 C   0  0  0  0  0  0  0  0  0  0  0  0
  -14.5037    4.3387  -24.0692 C   0  0  2  0  0  0  0  0  0  0  0  0
  -13.3763    5.1452  -24.7494 C   0  0  2  0  0  0  0  0  0  0  0  0
  -13.7229    6.6496  -24.7957 C   0  0  2  0  0  0  0  0  0  0  0  0
  -12.8203    9.3674  -24.9975 C   0  0  1  0  0  0  0  0  0  0  0  0
  -14.7546    4.7493  -22.6812 N   0  0  0  0  0  0  0  0  0  0  0  0
  -13.7633    5.1652  -21.8793 N   0  0  0  0  0  0  0  0  0  0  0  0
  -14.3346    5.3709  -20.7153 C   0  0  0  0  0  0  0  0  0  0  0  0
  -15.7116    5.0727  -20.7167 C   0  0  0  0  0  0  0  0  0  0  0  0
  -15.9515    4.6774  -22.0195 C   0  0  0  0  0  0  0  0  0  0  0  0
  -16.6566    5.1176  -19.7057 N   0  0  0  0  0  0  0  0  0  0  0  0
  -16.4210    5.4177  -18.4067 C   0  0  0  0  0  0  0  0  0  0  0  0
  -15.3180    5.7289  -17.9530 O   0  0  0  0  0  0  0  0  0  0  0  0
  -17.5819    5.3352  -17.5364 C   0  0  0  0  0  0  0  0  0  0  0  0
  -17.5997    5.7517  -16.1797 C   0  0  0  0  0  0  0  0  0  0  0  0
  -18.8534    5.3920  -15.7099 C   0  0  0  0  0  0  0  0  0  0  0  0
  -19.5080    4.8636  -16.7811 N   0  0  0  0  0  0  0  0  0  0  0  0
  -18.7486    4.8072  -17.8765 N   0  0  0  0  0  0  0  0  0  0  0  0
  -19.3932    5.5761  -14.3021 C   0  0  2  0  0  0  0  0  0  0  0  0
  -18.2072    5.7966  -13.3120 C   0  0  1  0  0  0  0  0  0  0  0  0
  -17.2148    6.8342  -13.9227 C   0  0  2  0  0  0  0  0  0  0  0  0
  -16.5662    6.4148  -15.2706 C   0  0  2  0  0  0  0  0  0  0  0  0
  -18.7767    6.3763  -12.0002 C   0  0  1  0  0  0  0  0  0  0  0  0
  -17.4785    4.4567  -13.0510 C   0  0  1  0  0  0  0  0  0  0  0  0
  -12.9242    0.0967  -22.8143 H   0  0  0  0  0  0  0  0  0  0  0  0
  -13.1364    2.5335  -22.4825 H   0  0  0  0  0  0  0  0  0  0  0  0
  -15.5567    2.7784  -26.0462 H   0  0  0  0  0  0  0  0  0  0  0  0
  -15.2426    0.3744  -26.4071 H   0  0  0  0  0  0  0  0  0  0  0  0
  -13.9690   -0.9747  -24.7738 H   0  0  0  0  0  0  0  0  0  0  0  0
  -15.4038    4.6132  -24.6043 H   0  0  0  0  0  0  0  0  0  0  0  0
  -13.2225    4.7737  -25.7652 H   0  0  0  0  0  0  0  0  0  0  0  0
  -12.4281    4.9712  -24.2332 H   0  0  0  0  0  0  0  0  0  0  0  0
  -13.8982    7.0581  -23.8043 H   0  0  0  0  0  0  0  0  0  0  0  0
  -14.5940    6.8496  -25.4135 H   0  0  0  0  0  0  0  0  0  0  0  0
  -12.0271   10.0259  -25.3367 H   0  0  0  0  0  0  0  0  0  0  0  0
  -13.7682    9.6008  -25.4708 H   0  0  0  0  0  0  0  0  0  0  0  0
  -12.8919    9.3636  -23.9137 H   0  0  0  0  0  0  0  0  0  0  0  0
  -13.7504    5.7132  -19.8740 H   0  0  0  0  0  0  0  0  0  0  0  0
  -16.8393    4.3292  -22.5251 H   0  0  0  0  0  0  0  0  0  0  0  0
  -17.6051    4.8901  -19.9706 H   0  0  0  0  0  0  0  0  0  0  0  0
  -20.4542    4.4986  -16.7558 H   0  0  0  0  0  0  0  0  0  0  0  0
  -19.9970    4.7252  -13.9965 H   0  0  0  0  0  0  0  0  0  0  0  0
  -20.0571    6.4398  -14.2866 H   0  0  0  0  0  0  0  0  0  0  0  0
  -16.4221    7.0627  -13.2087 H   0  0  0  0  0  0  0  0  0  0  0  0
  -17.7379    7.7803  -14.0739 H   0  0  0  0  0  0  0  0  0  0  0  0
  -16.1201    7.2867  -15.7491 H   0  0  0  0  0  0  0  0  0  0  0  0
  -15.7394    5.7330  -15.0849 H   0  0  0  0  0  0  0  0  0  0  0  0
  -17.9876    6.6155  -11.2869 H   0  0  0  0  0  0  0  0  0  0  0  0
  -19.3488    7.2848  -12.1674 H   0  0  0  0  0  0  0  0  0  0  0  0
  -19.4480    5.6709  -11.5156 H   0  0  0  0  0  0  0  0  0  0  0  0
  -16.6386    4.5918  -12.3694 H   0  0  0  0  0  0  0  0  0  0  0  0
  -18.1450    3.7190  -12.6043 H   0  0  0  0  0  0  0  0  0  0  0  0
  -17.0860    4.0159  -13.9637 H   0  0  0  0  0  0  0  0  0  0  0  0
  -12.3432    7.6633  -25.5178 S   0  0  1  0  0  0  0  0  0  0  0  0
  -11.1019    7.3339  -24.8257 O   0  0  0  0  0  0  0  0  0  0  0  0
  -12.4510    7.6006  -26.9743 O   0  0  0  0  0  0  0  0  0  0  0  0
  1  2  1  0
  1  6  2  0
  1 30  1  0
  2  3  2  0
  2 31  1  0
  3  4  1  0
  3  7  1  0
  4  5  2  0
  4 32  1  0
  5  6  1  0
  5 33  1  0
  6 34  1  0
  7  8  1  0
  7 11  1  0
  7 35  1  6
  8  9  1  0
  8 36  1  6
  8 37  1  0
  9 38  1  1
  9 39  1  0
 59  9  1  1
 10 40  1  1
 10 41  1  0
 10 42  1  0
 10 59  1  0
 11 12  1  0
 11 15  1  0
 12 13  2  0
 13 14  1  0
 13 43  1  0
 14 15  2  0
 14 16  1  0
 15 44  1  0
 16 17  1  0
 16 45  1  0
 17 18  2  0
 17 19  1  0
 19 20  1  0
 19 23  2  0
 20 21  2  0
 20 27  1  0
 21 22  1  0
 21 24  1  0
 22 23  1  0
 22 46  1  0
 25 24  1  6
 24 47  1  1
 24 48  1  0
 25 26  1  0
 25 28  1  0
 25 29  1  0
 26 27  1  0
 26 49  1  1
 26 50  1  0
 27 51  1  6
 27 52  1  0
 28 53  1  1
 28 54  1  0
 28 55  1  0
 29 56  1  1
 29 57  1  0
 29 58  1  0
 59 60  2  0
 59 61  2  0
M  END
