ligand25_S
     RDKit          3D

 56 58  0  0  1  0  0  0  0  0999 V2000
    7.0224    0.7354   -0.5763 C   0  0  2  0  0  0  0  0  0  0  0  0
    7.9212    1.8509   -0.2944 N   0  0  0  0  0  0  0  0  0  0  0  0
    9.2486    1.7123   -0.5330 C   0  0  0  0  0  0  0  0  0  0  0  0
    9.8817    0.4563   -0.4023 C   0  0  0  0  0  0  0  0  0  0  0  0
   11.2504    0.3012   -0.6881 C   0  0  0  0  0  0  0  0  0  0  0  0
   12.0082    1.4112   -1.1213 C   0  0  0  0  0  0  0  0  0  0  0  0
   11.3935    2.6755   -1.2671 C   0  0  0  0  0  0  0  0  0  0  0  0
   10.0251    2.8134   -0.9577 C   0  0  0  0  0  0  0  0  0  0  0  0
   12.1166    3.8477   -1.8347 C   0  0  0  0  0  0  0  0  0  0  0  0
   11.5292    4.6671   -2.5416 O   0  0  0  0  0  0  0  0  0  0  0  0
   13.4173    3.8357   -1.5088 N   0  0  0  0  0  0  0  0  0  0  0  0
   14.5278    3.8145   -2.4571 C   0  0  1  0  0  0  0  0  0  0  0  0
   15.7668    3.1357   -1.8038 C   0  0  1  0  0  0  0  0  0  0  0  0
   16.4363    2.2074   -2.6664 O   0  0  0  0  0  0  0  0  0  0  0  0
   16.0092    0.8948   -2.6470 C   0  0  0  0  0  0  0  0  0  0  0  0
   15.5664    0.3537   -3.8650 C   0  0  0  0  0  0  0  0  0  0  0  0
   15.0131   -0.9381   -3.8968 C   0  0  0  0  0  0  0  0  0  0  0  0
   14.9329   -1.6997   -2.7159 C   0  0  0  0  0  0  0  0  0  0  0  0
   15.3873   -1.1633   -1.4925 C   0  0  0  0  0  0  0  0  0  0  0  0
   15.3023   -1.9645   -0.2007 C   0  0  1  0  0  0  0  0  0  0  0  0
   13.8595   -2.3090    0.2127 C   0  0  1  0  0  0  0  0  0  0  0  0
   13.8099   -2.8168    1.6232 C   0  0  1  0  0  0  0  0  0  0  0  0
   12.5093   -3.1433    1.9492 O   0  0  0  0  0  0  0  0  0  0  0  0
   13.0200   -1.1222    0.0724 N   0  0  0  0  0  0  0  0  0  0  0  0
   11.8658   -1.0590   -0.6002 C   0  0  0  0  0  0  0  0  0  0  0  0
   11.3110   -2.0386   -1.0946 O   0  0  0  0  0  0  0  0  0  0  0  0
   15.9018    0.1440   -1.4627 C   0  0  0  0  0  0  0  0  0  0  0  0
    7.1757    3.2760    0.3874 S   0  0  2  0  0  0  0  0  0  0  0  0
    6.6826    4.2295   -1.1033 C   0  0  2  0  0  0  0  0  0  0  0  0
    8.2365    3.9937    1.1120 O   0  0  0  0  0  0  0  0  0  0  0  0
    5.9673    2.8325    1.0938 O   0  0  0  0  0  0  0  0  0  0  0  0
    6.9357    0.0930    0.3003 H   0  0  0  0  0  0  0  0  0  0  0  0
    7.3630    0.1376   -1.4226 H   0  0  0  0  0  0  0  0  0  0  0  0
    6.0227    1.0956   -0.8207 H   0  0  0  0  0  0  0  0  0  0  0  0
    9.3237   -0.4132   -0.0852 H   0  0  0  0  0  0  0  0  0  0  0  0
   13.0406    1.2621   -1.4070 H   0  0  0  0  0  0  0  0  0  0  0  0
    9.5736    3.7846   -1.0857 H   0  0  0  0  0  0  0  0  0  0  0  0
   13.5865    3.2717   -0.6924 H   0  0  0  0  0  0  0  0  0  0  0  0
   14.2261    3.2572   -3.3461 H   0  0  0  0  0  0  0  0  0  0  0  0
   14.7624    4.8279   -2.7856 H   0  0  0  0  0  0  0  0  0  0  0  0
   16.4875    3.9097   -1.5382 H   0  0  0  0  0  0  0  0  0  0  0  0
   15.5007    2.6670   -0.8563 H   0  0  0  0  0  0  0  0  0  0  0  0
   15.6265    0.9390   -4.7710 H   0  0  0  0  0  0  0  0  0  0  0  0
   14.6578   -1.3505   -4.8302 H   0  0  0  0  0  0  0  0  0  0  0  0
   14.5123   -2.6950   -2.7520 H   0  0  0  0  0  0  0  0  0  0  0  0
   15.8807   -2.8819   -0.3180 H   0  0  0  0  0  0  0  0  0  0  0  0
   15.7866   -1.4091    0.6035 H   0  0  0  0  0  0  0  0  0  0  0  0
   13.4881   -3.1164   -0.4219 H   0  0  0  0  0  0  0  0  0  0  0  0
   14.4401   -3.7016    1.7132 H   0  0  0  0  0  0  0  0  0  0  0  0
   14.1710   -2.0431    2.3008 H   0  0  0  0  0  0  0  0  0  0  0  0
   12.3812   -3.4929    2.8773 H   0  0  0  0  0  0  0  0  0  0  0  0
   13.3612   -0.2588    0.4604 H   0  0  0  0  0  0  0  0  0  0  0  0
   16.2460    0.5655   -0.5302 H   0  0  0  0  0  0  0  0  0  0  0  0
    6.2093    5.1510   -0.7718 H   0  0  0  0  0  0  0  0  0  0  0  0
    5.9772    3.6394   -1.6821 H   0  0  0  0  0  0  0  0  0  0  0  0
    7.5593    4.4630   -1.7007 H   0  0  0  0  0  0  0  0  0  0  0  0
  1  2  1  0
  1 32  1  1
  1 33  1  0
  1 34  1  0
  2  3  1  0
 28  2  1  6
  3  8  1  0
  3  4  2  0
  4  5  1  0
  4 35  1  0
  5 25  1  0
  5  6  2  0
  6  7  1  0
  6 36  1  0
  7  8  2  0
  7  9  1  0
  8 37  1  0
  9 10  2  0
  9 11  1  0
 11 12  1  0
 11 38  1  0
 12 13  1  0
 12 39  1  6
 12 40  1  0
 13 14  1  0
 13 41  1  1
 13 42  1  0
 14 15  1  0
 15 27  1  0
 15 16  2  0
 16 17  1  0
 16 43  1  0
 17 18  2  0
 17 44  1  0
 18 19  1  0
 18 45  1  0
 19 20  1  0
 19 27  2  0
 20 21  1  0
 20 46  1  6
 20 47  1  0
 21 22  1  0
 21 24  1  0
 21 48  1  6
 22 23  1  0
 22 49  1  6
 22 50  1  0
 23 51  1  0
 24 25  1  0
 24 52  1  0
 25 26  2  0
 27 53  1  0
 28 29  1  0
 28 30  2  0
 28 31  2  0
 29 54  1  1
 29 55  1  0
 29 56  1  0
M  END
