ligand24_S
     RDKit          3D

 58 59  0  0  1  0  0  0  0  0999 V2000
   14.1107    5.1452   -2.0114 C   0  0  2  0  0  0  0  0  0  0  0  0
   13.3930    3.9811   -1.5002 N   0  0  0  0  0  0  0  0  0  0  0  0
   12.1166    3.8477   -1.8347 C   0  0  0  0  0  0  0  0  0  0  0  0
   11.5292    4.6671   -2.5416 O   0  0  0  0  0  0  0  0  0  0  0  0
   11.3935    2.6755   -1.2671 C   0  0  0  0  0  0  0  0  0  0  0  0
   10.0251    2.8134   -0.9577 C   0  0  0  0  0  0  0  0  0  0  0  0
    9.2486    1.7123   -0.5330 C   0  0  0  0  0  0  0  0  0  0  0  0
    9.8817    0.4563   -0.4023 C   0  0  0  0  0  0  0  0  0  0  0  0
   11.2504    0.3012   -0.6881 C   0  0  0  0  0  0  0  0  0  0  0  0
   12.0082    1.4112   -1.1213 C   0  0  0  0  0  0  0  0  0  0  0  0
   11.8658   -1.0590   -0.6002 C   0  0  0  0  0  0  0  0  0  0  0  0
   11.3110   -2.0386   -1.0946 O   0  0  0  0  0  0  0  0  0  0  0  0
   13.0200   -1.1222    0.0724 N   0  0  0  0  0  0  0  0  0  0  0  0
   13.8595   -2.3090    0.2127 C   0  0  2  0  0  0  0  0  0  0  0  0
   13.8095   -2.8168    1.6232 C   0  0  1  0  0  0  0  0  0  0  0  0
   12.5046   -3.1149    1.9589 O   0  0  0  0  0  0  0  0  0  0  0  0
   15.3023   -1.9645   -0.2007 C   0  0  1  0  0  0  0  0  0  0  0  0
   15.3873   -1.1633   -1.4925 C   0  0  0  0  0  0  0  0  0  0  0  0
   15.9018    0.1440   -1.4627 C   0  0  0  0  0  0  0  0  0  0  0  0
   16.0092    0.8948   -2.6470 C   0  0  0  0  0  0  0  0  0  0  0  0
   16.5475    2.1651   -2.6163 O   0  0  0  0  0  0  0  0  0  0  0  0
   16.9500    2.5980   -1.3693 C   0  0  2  0  0  0  0  0  0  0  0  0
   15.5664    0.3537   -3.8650 C   0  0  0  0  0  0  0  0  0  0  0  0
   15.0131   -0.9381   -3.8968 C   0  0  0  0  0  0  0  0  0  0  0  0
   14.9329   -1.6997   -2.7159 C   0  0  0  0  0  0  0  0  0  0  0  0
    7.9212    1.8509   -0.2944 N   0  0  0  0  0  0  0  0  0  0  0  0
    7.0224    0.7354   -0.5763 C   0  0  2  0  0  0  0  0  0  0  0  0
    7.1757    3.2760    0.3874 S   0  0  1  0  0  0  0  0  0  0  0  0
    6.6826    4.2295   -1.1033 C   0  0  2  0  0  0  0  0  0  0  0  0
    5.9673    2.8325    1.0938 O   0  0  0  0  0  0  0  0  0  0  0  0
    8.2365    3.9937    1.1120 O   0  0  0  0  0  0  0  0  0  0  0  0
   15.1412    5.1212   -1.6568 H   0  0  0  0  0  0  0  0  0  0  0  0
   13.6258    6.0551   -1.6577 H   0  0  0  0  0  0  0  0  0  0  0  0
   14.1009    5.1283   -3.1012 H   0  0  0  0  0  0  0  0  0  0  0  0
   13.8197    3.3161   -0.8797 H   0  0  0  0  0  0  0  0  0  0  0  0
    9.5745    3.7849   -1.0853 H   0  0  0  0  0  0  0  0  0  0  0  0
    9.3238   -0.4132   -0.0853 H   0  0  0  0  0  0  0  0  0  0  0  0
   13.0422    1.2722   -1.4062 H   0  0  0  0  0  0  0  0  0  0  0  0
   13.3649   -0.2561    0.4513 H   0  0  0  0  0  0  0  0  0  0  0  0
   13.4883   -3.1161   -0.4223 H   0  0  0  0  0  0  0  0  0  0  0  0
   14.4208   -3.7154    1.7077 H   0  0  0  0  0  0  0  0  0  0  0  0
   14.1928   -2.0519    2.2985 H   0  0  0  0  0  0  0  0  0  0  0  0
   12.3760   -3.4624    2.8877 H   0  0  0  0  0  0  0  0  0  0  0  0
   15.7863   -1.4083    0.6031 H   0  0  0  0  0  0  0  0  0  0  0  0
   15.8809   -2.8817   -0.3181 H   0  0  0  0  0  0  0  0  0  0  0  0
   16.2507    0.5725   -0.5344 H   0  0  0  0  0  0  0  0  0  0  0  0
   17.3585    3.6054   -1.4487 H   0  0  0  0  0  0  0  0  0  0  0  0
   17.7147    1.9255   -0.9805 H   0  0  0  0  0  0  0  0  0  0  0  0
   16.0947    2.6050   -0.6935 H   0  0  0  0  0  0  0  0  0  0  0  0
   15.6407    0.9316   -4.7751 H   0  0  0  0  0  0  0  0  0  0  0  0
   14.6601   -1.3527   -4.8303 H   0  0  0  0  0  0  0  0  0  0  0  0
   14.5125   -2.6948   -2.7519 H   0  0  0  0  0  0  0  0  0  0  0  0
    6.9339    0.0941    0.3010 H   0  0  0  0  0  0  0  0  0  0  0  0
    7.3639    0.1365   -1.4214 H   0  0  0  0  0  0  0  0  0  0  0  0
    6.0234    1.0964   -0.8226 H   0  0  0  0  0  0  0  0  0  0  0  0
    6.2103    5.1515   -0.7720 H   0  0  0  0  0  0  0  0  0  0  0  0
    5.9771    3.6395   -1.6819 H   0  0  0  0  0  0  0  0  0  0  0  0
    7.5598    4.4615   -1.7007 H   0  0  0  0  0  0  0  0  0  0  0  0
  1  2  1  0
  1 32  1  1
  1 33  1  0
  1 34  1  0
  2  3  1  0
  2 35  1  0
  3  4  2  0
  3  5  1  0
  5 10  1  0
  5  6  2  0
  6  7  1  0
  6 36  1  0
  7  8  2  0
  7 26  1  0
  8  9  1  0
  8 37  1  0
  9 10  2  0
  9 11  1  0
 10 38  1  0
 11 12  2  0
 11 13  1  0
 13 14  1  0
 13 39  1  0
 14 15  1  0
 14 17  1  0
 14 40  1  6
 15 16  1  0
 15 41  1  6
 15 42  1  0
 16 43  1  0
 17 18  1  0
 17 44  1  1
 17 45  1  0
 18 25  1  0
 18 19  2  0
 19 20  1  0
 19 46  1  0
 20 21  1  0
 20 23  2  0
 21 22  1  0
 22 47  1  6
 22 48  1  0
 22 49  1  0
 23 24  1  0
 23 50  1  0
 24 25  2  0
 24 51  1  0
 25 52  1  0
 26 27  1  0
 28 26  1  6
 27 53  1  1
 27 54  1  0
 27 55  1  0
 28 29  1  0
 28 30  2  0
 28 31  2  0
 29 56  1  1
 29 57  1  0
 29 58  1  0
M  END
