12
     RDKit          3D

 36 38  0  0  1  0  0  0  0  0999 V2000
    8.3056   10.5541   22.2976 F   0  0  0  0  0  0  0  0  0  0  0  0
    7.1384   10.7101   22.9353 C   0  0  0  0  0  0  0  0  0  0  0  0
    6.7864   11.8949   23.6303 C   0  0  0  0  0  0  0  0  0  0  0  0
    5.5556   11.9545   24.3024 C   0  0  0  0  0  0  0  0  0  0  0  0
    6.2760    9.6244   22.8906 C   0  0  0  0  0  0  0  0  0  0  0  0
    5.0518    9.6812   23.5612 C   0  0  0  0  0  0  0  0  0  0  0  0
    4.6764   10.8210   24.2796 C   0  0  0  0  0  0  0  0  0  0  0  0
    3.3505   10.8215   25.0228 C   0  0  2  0  0  0  0  0  0  0  0  0
    3.2642    9.6351   26.0282 C   0  0  2  0  0  0  0  0  0  0  0  0
    1.8967    9.4427   26.6852 C   0  0  0  0  0  0  0  0  0  0  0  0
    1.7316    8.7243   27.7374 N   0  0  0  0  0  0  0  0  0  0  0  0
    2.9400    8.1749   28.2245 O   0  0  0  0  0  0  0  0  0  0  0  0
    0.7286   10.1056   26.0420 C   0  0  0  0  0  0  0  0  0  0  0  0
    2.1703   10.7888   24.0382 C   0  0  2  0  0  0  0  0  0  0  0  0
    0.8457   10.7323   24.7672 C   0  0  0  0  0  0  0  0  0  0  0  0
   -0.1921   11.2938   24.1169 N   0  0  0  0  0  0  0  0  0  0  0  0
   -1.3697   11.2458   24.7381 C   0  0  0  0  0  0  0  0  0  0  0  0
   -2.4267   11.7936   24.0598 N   0  0  0  0  0  0  0  0  0  0  0  0
   -1.6128   10.7198   25.9253 N   0  0  0  0  0  0  0  0  0  0  0  0
   -0.5897   10.1537   26.5928 C   0  0  0  0  0  0  0  0  0  0  0  0
    7.4647   12.7436   23.6446 H   0  0  0  0  0  0  0  0  0  0  0  0
    6.5798    8.7487   22.3418 H   0  0  0  0  0  0  0  0  0  0  0  0
    4.4190    8.8082   23.5183 H   0  0  0  0  0  0  0  0  0  0  0  0
    3.2772   11.7490   25.5901 H   0  0  0  0  0  0  0  0  0  0  0  0
    4.0430    9.7444   26.7759 H   0  0  0  0  0  0  0  0  0  0  0  0
    3.4828    8.6984   25.5184 H   0  0  0  0  0  0  0  0  0  0  0  0
    2.6091    7.6013   28.9099 H   0  0  0  0  0  0  0  0  0  0  0  0
    2.2258    9.9102   23.3993 H   0  0  0  0  0  0  0  0  0  0  0  0
    2.2004   11.6474   23.3615 H   0  0  0  0  0  0  0  0  0  0  0  0
   -3.3704   11.7750   24.4445 H   0  0  0  0  0  0  0  0  0  0  0  0
   -2.3057   12.2089   23.1527 H   0  0  0  0  0  0  0  0  0  0  0  0
   -0.9549    9.5697   27.9563 C   0  0  1  0  0  0  0  0  0  0  0  0
   -1.9904    9.7177   28.2535 H   0  0  0  0  0  0  0  0  0  0  0  0
   -0.7799    8.4991   27.9898 H   0  0  0  0  0  0  0  0  0  0  0  0
   -0.3269    9.9745   28.7426 H   0  0  0  0  0  0  0  0  0  0  0  0
    5.2828   12.8461   24.8413 H   0  0  0  0  0  0  0  0  0  0  0  0
  1  2  1  0
  2  3  1  0
  2  5  2  0
  3  4  2  0
  3 21  1  0
  4  7  1  0
  4 36  1  0
  5  6  1  0
  5 22  1  0
  6  7  2  0
  6 23  1  0
  7  8  1  0
  8  9  1  0
  8 14  1  0
  8 24  1  1
  9 10  1  0
  9 25  1  1
  9 26  1  0
 10 11  2  0
 10 13  1  0
 11 12  1  0
 12 27  1  0
 13 15  1  0
 13 20  2  0
 14 15  1  0
 14 28  1  6
 14 29  1  0
 15 16  2  0
 16 17  1  0
 17 18  1  0
 17 19  2  0
 18 30  1  0
 18 31  1  0
 19 20  1  0
 20 32  1  0
 32 33  1  1
 32 34  1  0
 32 35  1  0
M  END
