9
     RDKit          3D

 31 33  0  0  1  0  0  0  0  0999 V2000
    8.3150   10.6289   22.2887 F   0  0  0  0  0  0  0  0  0  0  0  0
    7.1510   10.7360   22.9308 C   0  0  0  0  0  0  0  0  0  0  0  0
    6.7962   11.9108   23.6189 C   0  0  0  0  0  0  0  0  0  0  0  0
    5.5623   11.9686   24.2967 C   0  0  0  0  0  0  0  0  0  0  0  0
    6.3028    9.6313   22.8932 C   0  0  0  0  0  0  0  0  0  0  0  0
    5.0815    9.6837   23.5703 C   0  0  0  0  0  0  0  0  0  0  0  0
    4.6975   10.8425   24.2782 C   0  0  0  0  0  0  0  0  0  0  0  0
    3.3537   10.8303   24.9994 C   0  0  2  0  0  0  0  0  0  0  0  0
    3.2606    9.6441   25.9827 C   0  0  2  0  0  0  0  0  0  0  0  0
    1.8775    9.4863   26.6475 C   0  0  0  0  0  0  0  0  0  0  0  0
    1.7927    8.8125   27.6697 O   0  0  0  0  0  0  0  0  0  0  0  0
    0.6983   10.1364   25.9968 C   0  0  0  0  0  0  0  0  0  0  0  0
    2.1685   10.7893   24.0109 C   0  0  2  0  0  0  0  0  0  0  0  0
    0.8222   10.7510   24.7320 C   0  0  0  0  0  0  0  0  0  0  0  0
   -0.2360   11.3191   24.1023 N   0  0  0  0  0  0  0  0  0  0  0  0
   -1.4110   11.2666   24.7294 C   0  0  0  0  0  0  0  0  0  0  0  0
   -2.4744   11.8067   24.0415 N   0  0  0  0  0  0  0  0  0  0  0  0
   -1.6442   10.7311   25.9274 N   0  0  0  0  0  0  0  0  0  0  0  0
   -0.5951   10.1679   26.5772 C   0  0  0  0  0  0  0  0  0  0  0  0
    7.4635   12.7610   23.6215 H   0  0  0  0  0  0  0  0  0  0  0  0
    6.6021    8.7521   22.3437 H   0  0  0  0  0  0  0  0  0  0  0  0
    4.4393    8.8214   23.5433 H   0  0  0  0  0  0  0  0  0  0  0  0
    3.2969   11.7502   25.5822 H   0  0  0  0  0  0  0  0  0  0  0  0
    4.0240    9.7501   26.7541 H   0  0  0  0  0  0  0  0  0  0  0  0
    3.5020    8.7120   25.4693 H   0  0  0  0  0  0  0  0  0  0  0  0
    2.2460    9.8951   23.3913 H   0  0  0  0  0  0  0  0  0  0  0  0
    2.2274   11.6367   23.3300 H   0  0  0  0  0  0  0  0  0  0  0  0
   -3.4242   11.7957   24.4112 H   0  0  0  0  0  0  0  0  0  0  0  0
   -2.3463   12.2319   23.1343 H   0  0  0  0  0  0  0  0  0  0  0  0
    5.3191   12.8882   24.8131 H   0  0  0  0  0  0  0  0  0  0  0  0
   -0.8099    9.7447   27.5554 H   0  0  0  0  0  0  0  0  0  0  0  0
  1  2  1  0
  2  3  1  0
  2  5  2  0
  3  4  2  0
  3 20  1  0
  4  7  1  0
  4 30  1  0
  5  6  1  0
  5 21  1  0
  6  7  2  0
  6 22  1  0
  7  8  1  0
  8  9  1  0
  8 13  1  0
  8 23  1  1
  9 10  1  0
  9 24  1  1
  9 25  1  0
 10 11  2  0
 10 12  1  0
 12 14  1  0
 12 19  2  0
 13 14  1  0
 13 26  1  6
 13 27  1  0
 14 15  2  0
 15 16  1  0
 16 17  1  0
 16 18  2  0
 17 28  1  0
 17 29  1  0
 18 19  1  0
 19 31  1  0
M  END
