8
     RDKit          3D

 33 35  0  0  1  0  0  0  0  0999 V2000
    7.1839   10.7493   22.9189 C   0  0  0  0  0  0  0  0  0  0  0  0
    6.8089   11.9010   23.6398 C   0  0  0  0  0  0  0  0  0  0  0  0
    5.5711   11.9461   24.3132 C   0  0  0  0  0  0  0  0  0  0  0  0
    6.3137    9.6482   22.8651 C   0  0  0  0  0  0  0  0  0  0  0  0
    5.0804    9.6924   23.5382 C   0  0  0  0  0  0  0  0  0  0  0  0
    4.6945   10.8265   24.2760 C   0  0  0  0  0  0  0  0  0  0  0  0
    3.3529   10.8140   25.0159 C   0  0  2  0  0  0  0  0  0  0  0  0
    3.2505    9.6299   26.0249 C   0  0  2  0  0  0  0  0  0  0  0  0
    1.8683    9.4456   26.6958 C   0  0  0  0  0  0  0  0  0  0  0  0
    1.6686    8.7585   27.7569 N   0  0  0  0  0  0  0  0  0  0  0  0
    2.8814    8.1874   28.2603 O   0  0  0  0  0  0  0  0  0  0  0  0
    0.7225   10.1205   26.0154 C   0  0  0  0  0  0  0  0  0  0  0  0
    2.1737   10.7889   24.0262 C   0  0  2  0  0  0  0  0  0  0  0  0
    0.8422   10.7401   24.7502 C   0  0  0  0  0  0  0  0  0  0  0  0
   -0.2060   11.3056   24.1059 N   0  0  0  0  0  0  0  0  0  0  0  0
   -1.3836   11.2562   24.7291 C   0  0  0  0  0  0  0  0  0  0  0  0
   -2.4451   11.7993   24.0508 N   0  0  0  0  0  0  0  0  0  0  0  0
   -1.6219   10.7290   25.9183 N   0  0  0  0  0  0  0  0  0  0  0  0
   -0.5781   10.1692   26.5678 C   0  0  0  0  0  0  0  0  0  0  0  0
    7.4811   12.7489   23.6677 H   0  0  0  0  0  0  0  0  0  0  0  0
    6.5873    8.7685   22.3055 H   0  0  0  0  0  0  0  0  0  0  0  0
    4.4300    8.8339   23.4928 H   0  0  0  0  0  0  0  0  0  0  0  0
    3.2850   11.7439   25.5841 H   0  0  0  0  0  0  0  0  0  0  0  0
    4.0305    9.7413   26.7728 H   0  0  0  0  0  0  0  0  0  0  0  0
    3.4825    8.6992   25.5080 H   0  0  0  0  0  0  0  0  0  0  0  0
    2.5684    7.5842   28.9286 H   0  0  0  0  0  0  0  0  0  0  0  0
    2.2328    9.9049   23.3955 H   0  0  0  0  0  0  0  0  0  0  0  0
    2.2124   11.6430   23.3491 H   0  0  0  0  0  0  0  0  0  0  0  0
   -3.3916   11.7835   24.4309 H   0  0  0  0  0  0  0  0  0  0  0  0
   -2.3228   12.2186   23.1445 H   0  0  0  0  0  0  0  0  0  0  0  0
    5.3152   12.8437   24.8566 H   0  0  0  0  0  0  0  0  0  0  0  0
   -0.8051    9.7483   27.5343 H   0  0  0  0  0  0  0  0  0  0  0  0
    8.1317   10.7052   22.4046 H   0  0  0  0  0  0  0  0  0  0  0  0
  1  2  1  0
  1  4  2  0
  1 33  1  0
  2  3  2  0
  2 20  1  0
  3  6  1  0
  3 31  1  0
  4  5  1  0
  4 21  1  0
  5  6  2  0
  5 22  1  0
  6  7  1  0
  7  8  1  0
  7 13  1  0
  7 23  1  1
  8  9  1  0
  8 24  1  1
  8 25  1  0
  9 10  2  0
  9 12  1  0
 10 11  1  0
 11 26  1  0
 12 14  1  0
 12 19  2  0
 13 14  1  0
 13 27  1  6
 13 28  1  0
 14 15  2  0
 15 16  1  0
 16 17  1  0
 16 18  2  0
 17 29  1  0
 17 30  1  0
 18 19  1  0
 19 32  1  0
M  END
