5g
     RDKit          3D

 37 39  0  0  1  0  0  0  0  0999 V2000
  -14.5941  -14.6150  -27.4605 C   0  0  0  0  0  0  0  0  0  0  0  0
  -15.1369  -15.4979  -26.5144 C   0  0  0  0  0  0  0  0  0  0  0  0
  -14.7145  -13.2383  -27.2601 C   0  0  0  0  0  0  0  0  0  0  0  0
  -15.8573  -14.9914  -25.4255 C   0  0  0  0  0  0  0  0  0  0  0  0
  -14.9298  -16.8830  -26.6408 N   0  0  0  0  0  0  0  0  0  0  0  0
  -15.3907  -12.7443  -26.1449 C   0  0  0  0  0  0  0  0  0  0  0  0
  -15.9817  -13.6184  -25.2308 C   0  0  0  0  0  0  0  0  0  0  0  0
  -16.4911  -15.9702  -24.4666 C   0  0  0  0  0  0  0  0  0  0  0  0
  -16.1251  -17.2491  -24.7261 N   0  0  0  0  0  0  0  0  0  0  0  0
  -17.2810  -15.6940  -23.5700 O   0  0  0  0  0  0  0  0  0  0  0  0
  -15.3890  -17.7358  -25.7840 C   0  0  0  0  0  0  0  0  0  0  0  0
  -15.2004  -19.1912  -25.9182 C   0  0  0  0  0  0  0  0  0  0  0  0
  -14.5061  -19.6855  -27.0277 C   0  0  0  0  0  0  0  0  0  0  0  0
  -14.2853  -21.0435  -27.1712 C   0  0  0  0  0  0  0  0  0  0  0  0
  -14.7595  -21.9408  -26.2143 C   0  0  0  0  0  0  0  0  0  0  0  0
  -15.4803  -21.4595  -25.1176 C   0  0  0  0  0  0  0  0  0  0  0  0
  -15.6979  -20.0952  -24.9680 C   0  0  0  0  0  0  0  0  0  0  0  0
  -14.3696  -23.4168  -26.2854 C   0  0  2  0  0  0  0  0  0  0  0  0
  -13.9934  -23.8472  -27.5673 O   0  0  0  0  0  0  0  0  0  0  0  0
  -15.5207  -24.3787  -25.9613 C   0  0  2  0  0  0  0  0  0  0  0  0
  -13.1349  -23.5978  -25.4021 C   0  0  2  0  0  0  0  0  0  0  0  0
  -13.7450  -15.1789  -28.8603 Cl  0  0  0  0  0  0  0  0  0  0  0  0
  -14.2766  -12.5462  -27.9669 H   0  0  0  0  0  0  0  0  0  0  0  0
  -15.4559  -11.6755  -25.9997 H   0  0  0  0  0  0  0  0  0  0  0  0
  -16.5186  -13.2304  -24.3765 H   0  0  0  0  0  0  0  0  0  0  0  0
  -16.5743  -17.9230  -24.1207 H   0  0  0  0  0  0  0  0  0  0  0  0
  -14.1142  -19.0224  -27.7868 H   0  0  0  0  0  0  0  0  0  0  0  0
  -13.7059  -21.3864  -28.0159 H   0  0  0  0  0  0  0  0  0  0  0  0
  -15.8326  -22.1348  -24.3511 H   0  0  0  0  0  0  0  0  0  0  0  0
  -16.2299  -19.7609  -24.0898 H   0  0  0  0  0  0  0  0  0  0  0  0
  -13.7518  -24.7763  -27.5137 H   0  0  0  0  0  0  0  0  0  0  0  0
  -16.4339  -24.0784  -26.4760 H   0  0  0  0  0  0  0  0  0  0  0  0
  -15.7131  -24.4109  -24.8906 H   0  0  0  0  0  0  0  0  0  0  0  0
  -15.3096  -25.4112  -26.2471 H   0  0  0  0  0  0  0  0  0  0  0  0
  -12.3527  -22.8797  -25.6504 H   0  0  0  0  0  0  0  0  0  0  0  0
  -12.7164  -24.5917  -25.5469 H   0  0  0  0  0  0  0  0  0  0  0  0
  -13.3675  -23.4812  -24.3427 H   0  0  0  0  0  0  0  0  0  0  0  0
  1  2  2  0
  1  3  1  0
  1 22  1  0
  2  4  1  0
  2  5  1  0
  3  6  2  0
  3 23  1  0
  4  7  2  0
  4  8  1  0
  5 11  2  0
  6  7  1  0
  6 24  1  0
  7 25  1  0
  8  9  1  0
  8 10  2  0
  9 11  1  0
  9 26  1  0
 11 12  1  0
 12 13  2  0
 12 17  1  0
 13 14  1  0
 13 27  1  0
 14 15  2  0
 14 28  1  0
 15 16  1  0
 15 18  1  0
 16 17  2  0
 16 29  1  0
 17 30  1  0
 18 19  1  6
 18 20  1  0
 18 21  1  0
 19 31  1  0
 20 32  1  6
 20 33  1  0
 20 34  1  0
 21 35  1  6
 21 36  1  0
 21 37  1  0
M  END
