8e adjust neutral
     RDKit          3D

 45 48  0  0  1  0  0  0  0  0999 V2000
  -14.5159  -14.6257  -27.4144 C   0  0  0  0  0  0  0  0  0  0  0  0
  -15.1061  -15.4995  -26.4820 C   0  0  0  0  0  0  0  0  0  0  0  0
  -14.6539  -13.2476  -27.2413 C   0  0  0  0  0  0  0  0  0  0  0  0
  -15.8759  -14.9792  -25.4319 C   0  0  0  0  0  0  0  0  0  0  0  0
  -14.9134  -16.8907  -26.5979 N   0  0  0  0  0  0  0  0  0  0  0  0
  -15.3946  -12.7349  -26.1798 C   0  0  0  0  0  0  0  0  0  0  0  0
  -16.0229  -13.5959  -25.2754 C   0  0  0  0  0  0  0  0  0  0  0  0
  -16.5480  -15.9540  -24.4866 C   0  0  0  0  0  0  0  0  0  0  0  0
  -16.1715  -17.2419  -24.7265 N   0  0  0  0  0  0  0  0  0  0  0  0
  -17.3669  -15.6650  -23.6138 O   0  0  0  0  0  0  0  0  0  0  0  0
  -15.3946  -17.7442  -25.7546 C   0  0  0  0  0  0  0  0  0  0  0  0
  -15.1775  -19.2096  -25.8895 C   0  0  0  0  0  0  0  0  0  0  0  0
  -15.5309  -20.1142  -24.8786 C   0  0  0  0  0  0  0  0  0  0  0  0
  -15.3225  -21.4828  -25.0464 C   0  0  0  0  0  0  0  0  0  0  0  0
  -14.7684  -21.9827  -26.2296 C   0  0  0  0  0  0  0  0  0  0  0  0
  -14.4096  -21.0837  -27.2371 C   0  0  0  0  0  0  0  0  0  0  0  0
  -14.6058  -19.7178  -27.0669 C   0  0  0  0  0  0  0  0  0  0  0  0
  -13.7889  -15.1120  -28.4494 F   0  0  0  0  0  0  0  0  0  0  0  0
  -15.5009  -11.3951  -26.0449 F   0  0  0  0  0  0  0  0  0  0  0  0
  -14.6587  -23.5022  -26.4466 C   0  0  1  0  0  0  0  0  0  0  0  0
  -15.8240  -24.0003  -27.3066 C   0  0  1  0  0  0  0  0  0  0  0  0
  -15.7611  -25.5170  -27.5154 C   0  0  2  0  0  0  0  0  0  0  0  0
  -14.5177  -25.8064  -28.3601 N   0  0  0  0  0  0  0  0  0  0  0  0
  -13.2674  -25.4586  -27.5481 C   0  0  2  0  0  0  0  0  0  0  0  0
  -13.3111  -23.9820  -27.0365 C   0  0  2  0  0  0  0  0  0  0  0  0
  -14.4920  -27.2895  -28.8065 C   0  0  2  0  0  0  0  0  0  0  0  0
  -14.1828  -12.5734  -27.9399 H   0  0  0  0  0  0  0  0  0  0  0  0
  -16.6114  -13.1947  -24.4622 H   0  0  0  0  0  0  0  0  0  0  0  0
  -16.5963  -17.9013  -24.0990 H   0  0  0  0  0  0  0  0  0  0  0  0
  -15.9641  -19.7689  -23.9514 H   0  0  0  0  0  0  0  0  0  0  0  0
  -15.6190  -22.1555  -24.2537 H   0  0  0  0  0  0  0  0  0  0  0  0
  -14.0011  -21.4224  -28.1766 H   0  0  0  0  0  0  0  0  0  0  0  0
  -14.3236  -19.0480  -27.8686 H   0  0  0  0  0  0  0  0  0  0  0  0
  -14.7542  -23.9706  -25.4647 H   0  0  0  0  0  0  0  0  0  0  0  0
  -16.7641  -23.7460  -26.8128 H   0  0  0  0  0  0  0  0  0  0  0  0
  -15.8433  -23.4809  -28.2665 H   0  0  0  0  0  0  0  0  0  0  0  0
  -16.6544  -25.8488  -28.0478 H   0  0  0  0  0  0  0  0  0  0  0  0
  -15.7329  -26.0538  -26.5649 H   0  0  0  0  0  0  0  0  0  0  0  0
  -12.3701  -25.6222  -28.1477 H   0  0  0  0  0  0  0  0  0  0  0  0
  -13.1977  -26.1324  -26.6919 H   0  0  0  0  0  0  0  0  0  0  0  0
  -12.5126  -23.8136  -26.3114 H   0  0  0  0  0  0  0  0  0  0  0  0
  -13.0511  -23.3584  -27.8907 H   0  0  0  0  0  0  0  0  0  0  0  0
  -15.4063  -27.4982  -29.3633 H   0  0  0  0  0  0  0  0  0  0  0  0
  -14.4310  -27.9225  -27.9213 H   0  0  0  0  0  0  0  0  0  0  0  0
  -13.6156  -27.4251  -29.4436 H   0  0  0  0  0  0  0  0  0  0  0  0
  1  2  2  0
  1  3  1  0
  1 18  1  0
  2  4  1  0
  2  5  1  0
  3  6  2  0
  3 27  1  0
  4  7  2  0
  4  8  1  0
  5 11  2  0
  6  7  1  0
  6 19  1  0
  7 28  1  0
  8  9  1  0
  8 10  2  0
  9 11  1  0
  9 29  1  0
 11 12  1  0
 12 13  2  0
 12 17  1  0
 13 14  1  0
 13 30  1  0
 14 15  2  0
 14 31  1  0
 15 16  1  0
 15 20  1  0
 16 17  2  0
 16 32  1  0
 17 33  1  0
 20 21  1  0
 20 25  1  0
 20 34  1  1
 21 22  1  0
 21 35  1  1
 21 36  1  0
 22 23  1  0
 22 37  1  6
 22 38  1  0
 23 24  1  0
 23 26  1  0
 24 25  1  0
 24 39  1  6
 24 40  1  0
 25 41  1  1
 25 42  1  0
 26 43  1  6
 26 44  1  0
 26 45  1  0
M  END
