5b
     RDKit          3D

 37 39  0  0  1  0  0  0  0  0999 V2000
  -14.5894  -14.6119  -27.4441 C   0  0  0  0  0  0  0  0  0  0  0  0
  -15.1428  -15.4891  -26.5100 C   0  0  0  0  0  0  0  0  0  0  0  0
  -14.7030  -13.2327  -27.2500 C   0  0  0  0  0  0  0  0  0  0  0  0
  -15.8634  -14.9906  -25.4207 C   0  0  0  0  0  0  0  0  0  0  0  0
  -14.9426  -16.8689  -26.6683 N   0  0  0  0  0  0  0  0  0  0  0  0
  -15.3891  -12.7382  -26.1379 C   0  0  0  0  0  0  0  0  0  0  0  0
  -15.9759  -13.6172  -25.2243 C   0  0  0  0  0  0  0  0  0  0  0  0
  -16.4952  -15.9801  -24.4664 C   0  0  0  0  0  0  0  0  0  0  0  0
  -16.1371  -17.2540  -24.7538 N   0  0  0  0  0  0  0  0  0  0  0  0
  -17.2763  -15.7272  -23.5502 O   0  0  0  0  0  0  0  0  0  0  0  0
  -15.3945  -17.7302  -25.8146 C   0  0  0  0  0  0  0  0  0  0  0  0
  -15.1973  -19.1867  -25.9419 C   0  0  0  0  0  0  0  0  0  0  0  0
  -14.5073  -19.6974  -27.0486 C   0  0  0  0  0  0  0  0  0  0  0  0
  -14.2856  -21.0604  -27.1729 C   0  0  0  0  0  0  0  0  0  0  0  0
  -14.7501  -21.9406  -26.1966 C   0  0  0  0  0  0  0  0  0  0  0  0
  -15.4584  -21.4406  -25.1001 C   0  0  0  0  0  0  0  0  0  0  0  0
  -15.6857  -20.0776  -24.9744 C   0  0  0  0  0  0  0  0  0  0  0  0
  -14.3969  -23.4263  -26.2515 C   0  0  2  0  0  0  0  0  0  0  0  0
  -13.9006  -23.8732  -27.4815 O   0  0  0  0  0  0  0  0  0  0  0  0
  -15.6193  -24.3262  -26.0737 C   0  0  2  0  0  0  0  0  0  0  0  0
  -13.2594  -23.6712  -25.2657 C   0  0  2  0  0  0  0  0  0  0  0  0
  -16.6306  -13.1410  -24.1487 F   0  0  0  0  0  0  0  0  0  0  0  0
  -14.0450  -14.9973  -28.2940 H   0  0  0  0  0  0  0  0  0  0  0  0
  -14.2554  -12.5451  -27.9546 H   0  0  0  0  0  0  0  0  0  0  0  0
  -15.4628  -11.6712  -25.9846 H   0  0  0  0  0  0  0  0  0  0  0  0
  -16.5911  -17.9324  -24.1573 H   0  0  0  0  0  0  0  0  0  0  0  0
  -14.1231  -19.0430  -27.8192 H   0  0  0  0  0  0  0  0  0  0  0  0
  -13.7180  -21.4231  -28.0172 H   0  0  0  0  0  0  0  0  0  0  0  0
  -15.8042  -22.1015  -24.3184 H   0  0  0  0  0  0  0  0  0  0  0  0
  -16.2253  -19.7377  -24.1020 H   0  0  0  0  0  0  0  0  0  0  0  0
  -13.6993  -24.8137  -27.4058 H   0  0  0  0  0  0  0  0  0  0  0  0
  -16.4429  -23.9881  -26.7028 H   0  0  0  0  0  0  0  0  0  0  0  0
  -15.9531  -24.3428  -25.0382 H   0  0  0  0  0  0  0  0  0  0  0  0
  -15.4245  -25.3700  -26.3290 H   0  0  0  0  0  0  0  0  0  0  0  0
  -12.4309  -22.9890  -25.4498 H   0  0  0  0  0  0  0  0  0  0  0  0
  -12.8765  -24.6864  -25.3647 H   0  0  0  0  0  0  0  0  0  0  0  0
  -13.5780  -23.5265  -24.2324 H   0  0  0  0  0  0  0  0  0  0  0  0
  1  2  2  0
  1  3  1  0
  1 23  1  0
  2  4  1  0
  2  5  1  0
  3  6  2  0
  3 24  1  0
  4  7  2  0
  4  8  1  0
  5 11  2  0
  6  7  1  0
  6 25  1  0
  7 22  1  0
  8  9  1  0
  8 10  2  0
  9 11  1  0
  9 26  1  0
 11 12  1  0
 12 13  2  0
 12 17  1  0
 13 14  1  0
 13 27  1  0
 14 15  2  0
 14 28  1  0
 15 16  1  0
 15 18  1  0
 16 17  2  0
 16 29  1  0
 17 30  1  0
 18 19  1  6
 18 20  1  0
 18 21  1  0
 19 31  1  0
 20 32  1  6
 20 33  1  0
 20 34  1  0
 21 35  1  6
 21 36  1  0
 21 37  1  0
M  END
