8f neutral
     RDKit          3D

 48 51  0  0  1  0  0  0  0  0999 V2000
  -14.5159  -14.6257  -27.4144 C   0  0  0  0  0  0  0  0  0  0  0  0
  -15.1061  -15.4995  -26.4820 C   0  0  0  0  0  0  0  0  0  0  0  0
  -14.6539  -13.2476  -27.2413 C   0  0  0  0  0  0  0  0  0  0  0  0
  -15.8759  -14.9792  -25.4319 C   0  0  0  0  0  0  0  0  0  0  0  0
  -14.9134  -16.8907  -26.5979 N   0  0  0  0  0  0  0  0  0  0  0  0
  -15.3946  -12.7349  -26.1798 C   0  0  0  0  0  0  0  0  0  0  0  0
  -16.0229  -13.5959  -25.2754 C   0  0  0  0  0  0  0  0  0  0  0  0
  -16.5480  -15.9540  -24.4866 C   0  0  0  0  0  0  0  0  0  0  0  0
  -16.1715  -17.2419  -24.7265 N   0  0  0  0  0  0  0  0  0  0  0  0
  -17.3669  -15.6650  -23.6138 O   0  0  0  0  0  0  0  0  0  0  0  0
  -15.3946  -17.7442  -25.7546 C   0  0  0  0  0  0  0  0  0  0  0  0
  -15.1775  -19.2096  -25.8895 C   0  0  0  0  0  0  0  0  0  0  0  0
  -14.6058  -19.7178  -27.0669 C   0  0  0  0  0  0  0  0  0  0  0  0
  -14.4096  -21.0837  -27.2371 C   0  0  0  0  0  0  0  0  0  0  0  0
  -14.7684  -21.9827  -26.2296 C   0  0  0  0  0  0  0  0  0  0  0  0
  -15.3225  -21.4828  -25.0464 C   0  0  0  0  0  0  0  0  0  0  0  0
  -15.5309  -20.1142  -24.8786 C   0  0  0  0  0  0  0  0  0  0  0  0
  -13.7074  -15.1200  -28.6006 C   0  0  2  0  0  0  0  0  0  0  0  0
  -15.5009  -11.3951  -26.0449 F   0  0  0  0  0  0  0  0  0  0  0  0
  -14.6587  -23.5022  -26.4466 C   0  0  1  0  0  0  0  0  0  0  0  0
  -15.8240  -24.0003  -27.3066 C   0  0  2  0  0  0  0  0  0  0  0  0
  -15.7611  -25.5170  -27.5154 C   0  0  1  0  0  0  0  0  0  0  0  0
  -14.5177  -25.8064  -28.3601 N   0  0  0  0  0  0  0  0  0  0  0  0
  -13.2674  -25.4586  -27.5481 C   0  0  1  0  0  0  0  0  0  0  0  0
  -13.3111  -23.9820  -27.0365 C   0  0  1  0  0  0  0  0  0  0  0  0
  -14.4920  -27.2895  -28.8065 C   0  0  2  0  0  0  0  0  0  0  0  0
  -14.1873  -12.5617  -27.9339 H   0  0  0  0  0  0  0  0  0  0  0  0
  -16.6072  -13.1835  -24.4632 H   0  0  0  0  0  0  0  0  0  0  0  0
  -16.6611  -17.9081  -24.1434 H   0  0  0  0  0  0  0  0  0  0  0  0
  -14.3269  -19.0604  -27.8788 H   0  0  0  0  0  0  0  0  0  0  0  0
  -14.0043  -21.4290  -28.1755 H   0  0  0  0  0  0  0  0  0  0  0  0
  -15.6145  -22.1593  -24.2574 H   0  0  0  0  0  0  0  0  0  0  0  0
  -15.9724  -19.7751  -23.9525 H   0  0  0  0  0  0  0  0  0  0  0  0
  -14.0702  -16.0854  -28.9411 H   0  0  0  0  0  0  0  0  0  0  0  0
  -12.6598  -15.2212  -28.3222 H   0  0  0  0  0  0  0  0  0  0  0  0
  -13.7739  -14.4356  -29.4460 H   0  0  0  0  0  0  0  0  0  0  0  0
  -14.7544  -23.9525  -25.4575 H   0  0  0  0  0  0  0  0  0  0  0  0
  -15.8268  -23.5093  -28.2787 H   0  0  0  0  0  0  0  0  0  0  0  0
  -16.7531  -23.7088  -26.8373 H   0  0  0  0  0  0  0  0  0  0  0  0
  -15.7046  -26.0750  -26.5817 H   0  0  0  0  0  0  0  0  0  0  0  0
  -16.6157  -25.8861  -28.0738 H   0  0  0  0  0  0  0  0  0  0  0  0
  -13.2088  -26.2047  -26.7695 H   0  0  0  0  0  0  0  0  0  0  0  0
  -12.4853  -25.6712  -28.2610 H   0  0  0  0  0  0  0  0  0  0  0  0
  -13.0273  -23.3220  -27.8502 H   0  0  0  0  0  0  0  0  0  0  0  0
  -12.5377  -23.8434  -26.2780 H   0  0  0  0  0  0  0  0  0  0  0  0
  -13.6156  -27.4251  -29.4436 H   0  0  0  0  0  0  0  0  0  0  0  0
  -15.4063  -27.4982  -29.3633 H   0  0  0  0  0  0  0  0  0  0  0  0
  -14.4310  -27.9225  -27.9213 H   0  0  0  0  0  0  0  0  0  0  0  0
  1  2  2  0
  1  3  1  0
  1 18  1  0
  2  4  1  0
  2  5  1  0
  3  6  2  0
  3 27  1  0
  4  7  2  0
  4  8  1  0
  5 11  2  0
  6  7  1  0
  6 19  1  0
  7 28  1  0
  8  9  1  0
  8 10  2  0
  9 11  1  0
  9 29  1  0
 11 12  1  0
 12 13  2  0
 12 17  1  0
 13 14  1  0
 13 30  1  0
 14 15  2  0
 14 31  1  0
 15 16  1  0
 15 20  1  0
 16 17  2  0
 16 32  1  0
 17 33  1  0
 18 34  1  6
 18 35  1  0
 18 36  1  0
 20 21  1  0
 20 25  1  0
 20 37  1  1
 21 22  1  0
 21 38  1  6
 21 39  1  0
 22 23  1  0
 22 40  1  1
 22 41  1  0
 23 24  1  0
 23 26  1  0
 24 25  1  0
 24 42  1  1
 24 43  1  0
 25 44  1  6
 25 45  1  0
 26 46  1  6
 26 47  1  0
 26 48  1  0
M  END
