5d
     RDKit          3D

 37 39  0  0  1  0  0  0  0  0999 V2000
  -14.4535  -14.6927  -27.3712 C   0  0  0  0  0  0  0  0  0  0  0  0
  -15.0784  -15.5229  -26.4415 C   0  0  0  0  0  0  0  0  0  0  0  0
  -14.6102  -13.3151  -27.2559 C   0  0  0  0  0  0  0  0  0  0  0  0
  -15.8837  -14.9928  -25.4252 C   0  0  0  0  0  0  0  0  0  0  0  0
  -14.8741  -16.8942  -26.5485 N   0  0  0  0  0  0  0  0  0  0  0  0
  -15.3974  -12.7936  -26.2316 C   0  0  0  0  0  0  0  0  0  0  0  0
  -16.0463  -13.6155  -25.3134 C   0  0  0  0  0  0  0  0  0  0  0  0
  -15.5440  -11.4725  -26.1380 F   0  0  0  0  0  0  0  0  0  0  0  0
  -16.5693  -15.9514  -24.4748 C   0  0  0  0  0  0  0  0  0  0  0  0
  -16.2398  -17.2429  -24.7413 N   0  0  0  0  0  0  0  0  0  0  0  0
  -17.3558  -15.6502  -23.5757 O   0  0  0  0  0  0  0  0  0  0  0  0
  -15.4213  -17.7368  -25.7409 C   0  0  0  0  0  0  0  0  0  0  0  0
  -15.2234  -19.1834  -25.8936 C   0  0  0  0  0  0  0  0  0  0  0  0
  -15.5201  -20.0833  -24.8635 C   0  0  0  0  0  0  0  0  0  0  0  0
  -15.2670  -21.4377  -25.0381 C   0  0  0  0  0  0  0  0  0  0  0  0
  -14.7316  -21.9054  -26.2440 C   0  0  0  0  0  0  0  0  0  0  0  0
  -14.4664  -21.0143  -27.2773 C   0  0  0  0  0  0  0  0  0  0  0  0
  -14.7122  -19.6674  -27.1051 C   0  0  0  0  0  0  0  0  0  0  0  0
  -14.3399  -23.3701  -26.3846 C   0  0  2  0  0  0  0  0  0  0  0  0
  -14.0576  -23.7851  -27.6947 O   0  0  0  0  0  0  0  0  0  0  0  0
  -15.4880  -24.2970  -26.0074 C   0  0  2  0  0  0  0  0  0  0  0  0
  -13.0471  -23.5757  -25.6024 C   0  0  2  0  0  0  0  0  0  0  0  0
  -13.8406  -15.1079  -28.1584 H   0  0  0  0  0  0  0  0  0  0  0  0
  -14.1226  -12.6472  -27.9524 H   0  0  0  0  0  0  0  0  0  0  0  0
  -16.6587  -13.1793  -24.5363 H   0  0  0  0  0  0  0  0  0  0  0  0
  -16.7442  -17.9115  -24.1747 H   0  0  0  0  0  0  0  0  0  0  0  0
  -15.9200  -19.7538  -23.9144 H   0  0  0  0  0  0  0  0  0  0  0  0
  -15.4562  -22.1127  -24.2170 H   0  0  0  0  0  0  0  0  0  0  0  0
  -14.0336  -21.3524  -28.2070 H   0  0  0  0  0  0  0  0  0  0  0  0
  -14.4797  -19.0042  -27.9271 H   0  0  0  0  0  0  0  0  0  0  0  0
  -13.8172  -24.7188  -27.6734 H   0  0  0  0  0  0  0  0  0  0  0  0
  -16.4235  -23.9560  -26.4519 H   0  0  0  0  0  0  0  0  0  0  0  0
  -15.6093  -24.3300  -24.9264 H   0  0  0  0  0  0  0  0  0  0  0  0
  -15.3323  -25.3326  -26.3173 H   0  0  0  0  0  0  0  0  0  0  0  0
  -12.2772  -22.8817  -25.9324 H   0  0  0  0  0  0  0  0  0  0  0  0
  -12.6666  -24.5827  -25.7462 H   0  0  0  0  0  0  0  0  0  0  0  0
  -13.1890  -23.4246  -24.5306 H   0  0  0  0  0  0  0  0  0  0  0  0
  1  2  2  0
  1  3  1  0
  1 23  1  0
  2  4  1  0
  2  5  1  0
  3  6  2  0
  3 24  1  0
  4  7  2  0
  4  9  1  0
  5 12  2  0
  6  7  1  0
  6  8  1  0
  7 25  1  0
  9 10  1  0
  9 11  2  0
 10 12  1  0
 10 26  1  0
 12 13  1  0
 13 14  2  0
 13 18  1  0
 14 15  1  0
 14 27  1  0
 15 16  2  0
 15 28  1  0
 16 17  1  0
 16 19  1  0
 17 18  2  0
 17 29  1  0
 18 30  1  0
 19 20  1  6
 19 21  1  0
 19 22  1  0
 20 31  1  0
 21 32  1  6
 21 33  1  0
 21 34  1  0
 22 35  1  6
 22 36  1  0
 22 37  1  0
M  END
