5n
     RDKit          3D

 44 46  0  0  1  0  0  0  0  0999 V2000
  -15.2188  -19.1933  -25.9294 C   0  0  0  0  0  0  0  0  0  0  0  0
  -15.5207  -20.0811  -24.8887 C   0  0  0  0  0  0  0  0  0  0  0  0
  -14.6791  -19.7108  -27.1165 C   0  0  0  0  0  0  0  0  0  0  0  0
  -15.4330  -17.7328  -25.7917 C   0  0  0  0  0  0  0  0  0  0  0  0
  -15.2583  -21.4409  -25.0269 C   0  0  0  0  0  0  0  0  0  0  0  0
  -14.4297  -21.0719  -27.2570 C   0  0  0  0  0  0  0  0  0  0  0  0
  -14.7125  -21.9571  -26.2127 C   0  0  0  0  0  0  0  0  0  0  0  0
  -16.2477  -17.2429  -24.7823 N   0  0  0  0  0  0  0  0  0  0  0  0
  -16.5602  -15.9503  -24.4840 C   0  0  0  0  0  0  0  0  0  0  0  0
  -14.9001  -16.8753  -26.5993 N   0  0  0  0  0  0  0  0  0  0  0  0
  -15.0937  -15.4939  -26.4597 C   0  0  0  0  0  0  0  0  0  0  0  0
  -15.8864  -14.9745  -25.4274 C   0  0  0  0  0  0  0  0  0  0  0  0
  -16.0409  -13.5920  -25.2832 C   0  0  0  0  0  0  0  0  0  0  0  0
  -15.3990  -12.7369  -26.1837 C   0  0  0  0  0  0  0  0  0  0  0  0
  -14.6257  -13.2572  -27.2244 C   0  0  0  0  0  0  0  0  0  0  0  0
  -14.4743  -14.6366  -27.3692 C   0  0  0  0  0  0  0  0  0  0  0  0
  -17.3228  -15.6553  -23.5610 O   0  0  0  0  0  0  0  0  0  0  0  0
  -14.3876  -23.4673  -26.3291 C   0  0  2  0  0  0  0  0  0  0  0  0
  -15.6327  -24.2709  -25.9034 C   0  0  2  0  0  0  0  0  0  0  0  0
  -13.1670  -23.7531  -25.4354 C   0  0  2  0  0  0  0  0  0  0  0  0
  -13.9830  -23.7736  -27.6803 O   0  0  0  0  0  0  0  0  0  0  0  0
  -15.5276  -11.3976  -26.0603 F   0  0  0  0  0  0  0  0  0  0  0  0
  -14.3211  -25.0051  -28.3434 C   0  0  2  0  0  0  0  0  0  0  0  0
  -13.6823  -26.3058  -27.7932 C   0  0  2  0  0  0  0  0  0  0  0  0
  -12.3409  -26.5187  -28.1935 O   0  0  0  0  0  0  0  0  0  0  0  0
  -15.9360  -19.7334  -23.9527 H   0  0  0  0  0  0  0  0  0  0  0  0
  -14.4388  -19.0590  -27.9458 H   0  0  0  0  0  0  0  0  0  0  0  0
  -15.4715  -22.0899  -24.1896 H   0  0  0  0  0  0  0  0  0  0  0  0
  -13.9930  -21.4263  -28.1777 H   0  0  0  0  0  0  0  0  0  0  0  0
  -16.7539  -17.9150  -24.2221 H   0  0  0  0  0  0  0  0  0  0  0  0
  -16.6437  -13.1814  -24.4849 H   0  0  0  0  0  0  0  0  0  0  0  0
  -14.1361  -12.5878  -27.9157 H   0  0  0  0  0  0  0  0  0  0  0  0
  -13.8694  -15.0380  -28.1690 H   0  0  0  0  0  0  0  0  0  0  0  0
  -15.7882  -24.1848  -24.8301 H   0  0  0  0  0  0  0  0  0  0  0  0
  -15.6303  -25.3323  -26.1285 H   0  0  0  0  0  0  0  0  0  0  0  0
  -16.4761  -23.8632  -26.4431 H   0  0  0  0  0  0  0  0  0  0  0  0
  -13.4408  -23.9162  -24.3935 H   0  0  0  0  0  0  0  0  0  0  0  0
  -12.5169  -22.8868  -25.4408 H   0  0  0  0  0  0  0  0  0  0  0  0
  -12.5719  -24.6005  -25.7690 H   0  0  0  0  0  0  0  0  0  0  0  0
  -14.0577  -24.9010  -29.3951 H   0  0  0  0  0  0  0  0  0  0  0  0
  -15.4059  -25.1054  -28.3417 H   0  0  0  0  0  0  0  0  0  0  0  0
  -14.2598  -27.1651  -28.1348 H   0  0  0  0  0  0  0  0  0  0  0  0
  -13.7170  -26.3258  -26.7118 H   0  0  0  0  0  0  0  0  0  0  0  0
  -12.3338  -26.8977  -29.0783 H   0  0  0  0  0  0  0  0  0  0  0  0
  1  2  1  0
  1  3  2  0
  1  4  1  0
  2  5  2  0
  2 26  1  0
  3  6  1  0
  3 27  1  0
  4  8  1  0
  4 10  2  0
  5  7  1  0
  5 28  1  0
  6  7  2  0
  6 29  1  0
  7 18  1  0
  8  9  1  0
  8 30  1  0
  9 12  1  0
  9 17  2  0
 10 11  1  0
 11 12  2  0
 11 16  1  0
 12 13  1  0
 13 14  2  0
 13 31  1  0
 14 15  1  0
 14 22  1  0
 15 16  2  0
 15 32  1  0
 16 33  1  0
 18 19  1  0
 18 20  1  0
 18 21  1  6
 19 34  1  1
 19 35  1  0
 19 36  1  0
 20 37  1  1
 20 38  1  0
 20 39  1  0
 21 23  1  0
 23 24  1  0
 23 40  1  6
 23 41  1  0
 24 25  1  0
 24 42  1  6
 24 43  1  0
 25 44  1  0
M  END
