8a neutral
     RDKit          3D

 44 47  0  0  1  0  0  0  0  0999 V2000
  -14.5159  -14.6257  -27.4144 C   0  0  0  0  0  0  0  0  0  0  0  0
  -15.1061  -15.4995  -26.4820 C   0  0  0  0  0  0  0  0  0  0  0  0
  -14.6539  -13.2476  -27.2413 C   0  0  0  0  0  0  0  0  0  0  0  0
  -15.8759  -14.9792  -25.4319 C   0  0  0  0  0  0  0  0  0  0  0  0
  -14.9134  -16.8907  -26.5979 N   0  0  0  0  0  0  0  0  0  0  0  0
  -15.3946  -12.7349  -26.1798 C   0  0  0  0  0  0  0  0  0  0  0  0
  -16.0229  -13.5959  -25.2754 C   0  0  0  0  0  0  0  0  0  0  0  0
  -16.5480  -15.9540  -24.4866 C   0  0  0  0  0  0  0  0  0  0  0  0
  -16.1715  -17.2419  -24.7265 N   0  0  0  0  0  0  0  0  0  0  0  0
  -17.3669  -15.6650  -23.6138 O   0  0  0  0  0  0  0  0  0  0  0  0
  -15.3946  -17.7442  -25.7546 C   0  0  0  0  0  0  0  0  0  0  0  0
  -15.1775  -19.2096  -25.8895 C   0  0  0  0  0  0  0  0  0  0  0  0
  -14.6058  -19.7178  -27.0669 C   0  0  0  0  0  0  0  0  0  0  0  0
  -14.4096  -21.0837  -27.2371 C   0  0  0  0  0  0  0  0  0  0  0  0
  -14.7684  -21.9827  -26.2296 C   0  0  0  0  0  0  0  0  0  0  0  0
  -15.3225  -21.4828  -25.0464 C   0  0  0  0  0  0  0  0  0  0  0  0
  -15.5309  -20.1142  -24.8786 C   0  0  0  0  0  0  0  0  0  0  0  0
  -15.5009  -11.3951  -26.0449 F   0  0  0  0  0  0  0  0  0  0  0  0
  -14.6699  -23.3454  -26.4242 N   0  0  0  0  0  0  0  0  0  0  0  0
  -15.8354  -23.8434  -27.2843 C   0  0  2  0  0  0  0  0  0  0  0  0
  -15.7724  -25.3602  -27.4930 C   0  0  1  0  0  0  0  0  0  0  0  0
  -14.5291  -25.6496  -28.3377 N   0  0  0  0  0  0  0  0  0  0  0  0
  -13.2787  -25.3017  -27.5257 C   0  0  1  0  0  0  0  0  0  0  0  0
  -13.3224  -23.8251  -27.0141 C   0  0  1  0  0  0  0  0  0  0  0  0
  -14.5034  -27.1326  -28.7841 C   0  0  2  0  0  0  0  0  0  0  0  0
  -14.1873  -12.5617  -27.9339 H   0  0  0  0  0  0  0  0  0  0  0  0
  -16.6072  -13.1835  -24.4632 H   0  0  0  0  0  0  0  0  0  0  0  0
  -16.6611  -17.9081  -24.1434 H   0  0  0  0  0  0  0  0  0  0  0  0
  -14.3269  -19.0604  -27.8788 H   0  0  0  0  0  0  0  0  0  0  0  0
  -14.0043  -21.4290  -28.1755 H   0  0  0  0  0  0  0  0  0  0  0  0
  -15.6145  -22.1593  -24.2574 H   0  0  0  0  0  0  0  0  0  0  0  0
  -15.9724  -19.7751  -23.9525 H   0  0  0  0  0  0  0  0  0  0  0  0
  -15.8381  -23.3525  -28.2563 H   0  0  0  0  0  0  0  0  0  0  0  0
  -16.7644  -23.5520  -26.8149 H   0  0  0  0  0  0  0  0  0  0  0  0
  -15.7159  -25.9181  -26.5593 H   0  0  0  0  0  0  0  0  0  0  0  0
  -16.6270  -25.7293  -28.0514 H   0  0  0  0  0  0  0  0  0  0  0  0
  -13.2202  -26.0478  -26.7471 H   0  0  0  0  0  0  0  0  0  0  0  0
  -12.4967  -25.5143  -28.2386 H   0  0  0  0  0  0  0  0  0  0  0  0
  -13.0387  -23.1651  -27.8278 H   0  0  0  0  0  0  0  0  0  0  0  0
  -12.5491  -23.6866  -26.2557 H   0  0  0  0  0  0  0  0  0  0  0  0
  -13.6270  -27.2683  -29.4212 H   0  0  0  0  0  0  0  0  0  0  0  0
  -15.4177  -27.3414  -29.3409 H   0  0  0  0  0  0  0  0  0  0  0  0
  -14.4423  -27.7655  -27.8989 H   0  0  0  0  0  0  0  0  0  0  0  0
  -13.9636  -15.0236  -28.2528 H   0  0  0  0  0  0  0  0  0  0  0  0
  1  2  2  0
  1  3  1  0
  1 44  1  0
  2  4  1  0
  2  5  1  0
  3  6  2  0
  3 26  1  0
  4  7  2  0
  4  8  1  0
  5 11  2  0
  6  7  1  0
  6 18  1  0
  7 27  1  0
  8  9  1  0
  8 10  2  0
  9 11  1  0
  9 28  1  0
 11 12  1  0
 12 13  2  0
 12 17  1  0
 13 14  1  0
 13 29  1  0
 14 15  2  0
 14 30  1  0
 15 16  1  0
 15 19  1  0
 16 17  2  0
 16 31  1  0
 17 32  1  0
 19 20  1  0
 19 24  1  0
 20 21  1  0
 20 33  1  6
 20 34  1  0
 21 22  1  0
 21 35  1  1
 21 36  1  0
 22 23  1  0
 22 25  1  0
 23 24  1  0
 23 37  1  1
 23 38  1  0
 24 39  1  6
 24 40  1  0
 25 41  1  6
 25 42  1  0
 25 43  1  0
M  END
