8c adjust
     RDKit          3D

 43 46  0  0  1  0  0  0  0  0999 V2000
  -14.5442  -14.6404  -27.4328 C   0  0  0  0  0  0  0  0  0  0  0  0
  -15.1000  -15.5038  -26.4777 C   0  0  0  0  0  0  0  0  0  0  0  0
  -14.7295  -13.2632  -27.3010 C   0  0  0  0  0  0  0  0  0  0  0  0
  -15.8612  -14.9818  -25.4222 C   0  0  0  0  0  0  0  0  0  0  0  0
  -14.8845  -16.8898  -26.5834 N   0  0  0  0  0  0  0  0  0  0  0  0
  -15.4728  -12.7469  -26.2368 C   0  0  0  0  0  0  0  0  0  0  0  0
  -16.0486  -13.6021  -25.2959 C   0  0  0  0  0  0  0  0  0  0  0  0
  -16.4818  -15.9513  -24.4380 C   0  0  0  0  0  0  0  0  0  0  0  0
  -16.1298  -17.2406  -24.6980 N   0  0  0  0  0  0  0  0  0  0  0  0
  -17.2443  -15.6580  -23.5172 O   0  0  0  0  0  0  0  0  0  0  0  0
  -15.3716  -17.7414  -25.7405 C   0  0  0  0  0  0  0  0  0  0  0  0
  -15.1801  -19.2050  -25.8872 C   0  0  0  0  0  0  0  0  0  0  0  0
  -14.4492  -19.6924  -26.9792 C   0  0  0  0  0  0  0  0  0  0  0  0
  -14.2619  -21.0551  -27.1625 C   0  0  0  0  0  0  0  0  0  0  0  0
  -14.7871  -21.9735  -26.2490 C   0  0  0  0  0  0  0  0  0  0  0  0
  -15.5128  -21.4965  -25.1526 C   0  0  0  0  0  0  0  0  0  0  0  0
  -15.7193  -20.1279  -24.9784 C   0  0  0  0  0  0  0  0  0  0  0  0
  -13.8118  -15.1167  -28.4680 F   0  0  0  0  0  0  0  0  0  0  0  0
  -15.6408  -11.4112  -26.1247 F   0  0  0  0  0  0  0  0  0  0  0  0
  -14.6336  -23.4709  -26.4742 C   0  0  2  0  0  0  0  0  0  0  0  0
  -13.3569  -23.7681  -27.2720 C   0  0  1  0  0  0  0  0  0  0  0  0
  -13.2582  -25.2661  -27.6111 C   0  0  2  0  0  0  0  0  0  0  0  0
  -14.4367  -25.6877  -28.3675 N   0  0  2  0  0  0  0  0  0  0  0  0
  -15.6471  -25.5180  -27.5647 C   0  0  2  0  0  0  0  0  0  0  0  0
  -15.8500  -24.0310  -27.2236 C   0  0  2  0  0  0  0  0  0  0  0  0
  -14.2894  -12.5929  -28.0239 H   0  0  0  0  0  0  0  0  0  0  0  0
  -16.6285  -13.1873  -24.4826 H   0  0  0  0  0  0  0  0  0  0  0  0
  -16.5979  -17.9079  -24.0990 H   0  0  0  0  0  0  0  0  0  0  0  0
  -14.0306  -19.0176  -27.7144 H   0  0  0  0  0  0  0  0  0  0  0  0
  -13.7209  -21.3763  -28.0383 H   0  0  0  0  0  0  0  0  0  0  0  0
  -15.9343  -22.1849  -24.4342 H   0  0  0  0  0  0  0  0  0  0  0  0
  -16.3040  -19.8045  -24.1288 H   0  0  0  0  0  0  0  0  0  0  0  0
  -14.5659  -23.9315  -25.4885 H   0  0  0  0  0  0  0  0  0  0  0  0
  -13.3456  -23.1784  -28.1886 H   0  0  0  0  0  0  0  0  0  0  0  0
  -12.4819  -23.4588  -26.7003 H   0  0  0  0  0  0  0  0  0  0  0  0
  -13.1630  -25.8602  -26.7022 H   0  0  0  0  0  0  0  0  0  0  0  0
  -12.3630  -25.4548  -28.2035 H   0  0  0  0  0  0  0  0  0  0  0  0
  -14.3381  -26.6657  -28.5998 H   0  0  0  0  0  0  0  0  0  0  0  0
  -15.5815  -26.1152  -26.6552 H   0  0  0  0  0  0  0  0  0  0  0  0
  -16.5056  -25.8915  -28.1230 H   0  0  0  0  0  0  0  0  0  0  0  0
  -16.0192  -23.4602  -28.1366 H   0  0  0  0  0  0  0  0  0  0  0  0
  -16.7476  -23.9085  -26.6173 H   0  0  0  0  0  0  0  0  0  0  0  0
  -14.5123  -25.1244  -29.2025 H   0  0  0  0  0  0  0  0  0  0  0  0
  1  2  2  0
  1  3  1  0
  1 18  1  0
  2  4  1  0
  2  5  1  0
  3  6  2  0
  3 26  1  0
  4  7  2  0
  4  8  1  0
  5 11  2  0
  6  7  1  0
  6 19  1  0
  7 27  1  0
  8  9  1  0
  8 10  2  0
  9 11  1  0
  9 28  1  0
 11 12  1  0
 12 13  2  0
 12 17  1  0
 13 14  1  0
 13 29  1  0
 14 15  2  0
 14 30  1  0
 15 16  1  0
 15 20  1  0
 16 17  2  0
 16 31  1  0
 17 32  1  0
 20 21  1  0
 20 25  1  0
 20 33  1  1
 21 22  1  0
 21 34  1  6
 21 35  1  0
 22 23  1  0
 22 36  1  1
 22 37  1  0
 23 24  1  0
 23 38  1  6
 23 43  1  0
 24 25  1  0
 24 39  1  1
 24 40  1  0
 25 41  1  6
 25 42  1  0
M  CHG  1  23   1
M  END
