5l
     RDKit          3D

 37 39  0  0  1  0  0  0  0  0999 V2000
  -15.1935  -19.1896  -25.9228 C   0  0  0  0  0  0  0  0  0  0  0  0
  -15.5928  -20.0779  -24.9124 C   0  0  0  0  0  0  0  0  0  0  0  0
  -14.6065  -19.7043  -27.0848 C   0  0  0  0  0  0  0  0  0  0  0  0
  -15.3721  -21.4424  -25.0518 C   0  0  0  0  0  0  0  0  0  0  0  0
  -14.3918  -21.0661  -27.2218 C   0  0  0  0  0  0  0  0  0  0  0  0
  -14.9191  -16.8739  -26.6450 N   0  0  0  0  0  0  0  0  0  0  0  0
  -14.7575  -21.9446  -26.2029 C   0  0  0  0  0  0  0  0  0  0  0  0
  -14.3795  -23.4249  -26.2788 C   0  0  1  0  0  0  0  0  0  0  0  0
  -16.5225  -15.9777  -24.4917 C   0  0  0  0  0  0  0  0  0  0  0  0
  -16.1227  -17.2479  -24.7381 N   0  0  0  0  0  0  0  0  0  0  0  0
  -15.3797  -17.7314  -25.7929 C   0  0  0  0  0  0  0  0  0  0  0  0
  -17.3654  -15.7263  -23.6341 O   0  0  0  0  0  0  0  0  0  0  0  0
  -15.5479  -24.3585  -25.9610 C   0  0  2  0  0  0  0  0  0  0  0  0
  -14.0087  -23.8713  -27.5546 O   0  0  0  0  0  0  0  0  0  0  0  0
  -13.1421  -23.6327  -25.4095 C   0  0  2  0  0  0  0  0  0  0  0  0
  -15.1273  -15.4891  -26.5062 C   0  0  0  0  0  0  0  0  0  0  0  0
  -15.8678  -14.9888  -25.4284 C   0  0  0  0  0  0  0  0  0  0  0  0
  -15.9749  -13.6151  -25.2210 C   0  0  0  0  0  0  0  0  0  0  0  0
  -15.3761  -12.7377  -26.1265 C   0  0  0  0  0  0  0  0  0  0  0  0
  -14.6827  -13.2275  -27.2349 C   0  0  0  0  0  0  0  0  0  0  0  0
  -14.5586  -14.6047  -27.4321 C   0  0  0  0  0  0  0  0  0  0  0  0
  -13.8546  -15.0622  -28.4953 F   0  0  0  0  0  0  0  0  0  0  0  0
  -16.6231  -13.1347  -24.1381 F   0  0  0  0  0  0  0  0  0  0  0  0
  -16.0544  -19.7338  -23.9977 H   0  0  0  0  0  0  0  0  0  0  0  0
  -14.2956  -19.0539  -27.8911 H   0  0  0  0  0  0  0  0  0  0  0  0
  -15.6437  -22.1018  -24.2400 H   0  0  0  0  0  0  0  0  0  0  0  0
  -13.8982  -21.4277  -28.1118 H   0  0  0  0  0  0  0  0  0  0  0  0
  -16.5924  -17.9249  -24.1517 H   0  0  0  0  0  0  0  0  0  0  0  0
  -16.4372  -24.0640  -26.5187 H   0  0  0  0  0  0  0  0  0  0  0  0
  -15.7831  -24.3563  -24.8987 H   0  0  0  0  0  0  0  0  0  0  0  0
  -15.3413  -25.4016  -26.2094 H   0  0  0  0  0  0  0  0  0  0  0  0
  -13.8639  -24.8239  -27.5127 H   0  0  0  0  0  0  0  0  0  0  0  0
  -12.3552  -22.9286  -25.6752 H   0  0  0  0  0  0  0  0  0  0  0  0
  -12.7431  -24.6382  -25.5408 H   0  0  0  0  0  0  0  0  0  0  0  0
  -13.3613  -23.4951  -24.3497 H   0  0  0  0  0  0  0  0  0  0  0  0
  -15.4420  -11.6710  -25.9692 H   0  0  0  0  0  0  0  0  0  0  0  0
  -14.2225  -12.5374  -27.9297 H   0  0  0  0  0  0  0  0  0  0  0  0
  1  2  1  0
  1  3  2  0
  1 11  1  0
  2  4  2  0
  2 24  1  0
  3  5  1  0
  3 25  1  0
  4  7  1  0
  4 26  1  0
  5  7  2  0
  5 27  1  0
  6 11  2  0
  6 16  1  0
  7  8  1  0
  8 13  1  0
  8 14  1  6
  8 15  1  0
  9 10  1  0
  9 12  2  0
  9 17  1  0
 10 11  1  0
 10 28  1  0
 13 29  1  6
 13 30  1  0
 13 31  1  0
 14 32  1  0
 15 33  1  6
 15 34  1  0
 15 35  1  0
 16 17  2  0
 16 21  1  0
 17 18  1  0
 18 19  2  0
 18 23  1  0
 19 20  1  0
 19 36  1  0
 20 21  2  0
 20 37  1  0
 21 22  1  0
M  END
