8d
     RDKit          3D

 46 49  0  0  1  0  0  0  0  0999 V2000
  -14.5195  -14.6360  -27.4154 C   0  0  0  0  0  0  0  0  0  0  0  0
  -15.1062  -15.5031  -26.4772 C   0  0  0  0  0  0  0  0  0  0  0  0
  -14.6544  -13.2567  -27.2464 C   0  0  0  0  0  0  0  0  0  0  0  0
  -15.8812  -14.9798  -25.4344 C   0  0  0  0  0  0  0  0  0  0  0  0
  -14.8957  -16.8914  -26.5781 N   0  0  0  0  0  0  0  0  0  0  0  0
  -15.3896  -12.7401  -26.1838 C   0  0  0  0  0  0  0  0  0  0  0  0
  -16.0236  -13.5967  -25.2792 C   0  0  0  0  0  0  0  0  0  0  0  0
  -16.5558  -15.9506  -24.4880 C   0  0  0  0  0  0  0  0  0  0  0  0
  -16.1558  -17.2371  -24.7063 N   0  0  0  0  0  0  0  0  0  0  0  0
  -17.3991  -15.6576  -23.6376 O   0  0  0  0  0  0  0  0  0  0  0  0
  -15.3809  -17.7423  -25.7356 C   0  0  0  0  0  0  0  0  0  0  0  0
  -15.1666  -19.2067  -25.8790 C   0  0  0  0  0  0  0  0  0  0  0  0
  -14.6164  -19.7107  -27.0690 C   0  0  0  0  0  0  0  0  0  0  0  0
  -14.4306  -21.0768  -27.2542 C   0  0  0  0  0  0  0  0  0  0  0  0
  -14.7833  -21.9809  -26.2486 C   0  0  0  0  0  0  0  0  0  0  0  0
  -15.3122  -21.4862  -25.0517 C   0  0  0  0  0  0  0  0  0  0  0  0
  -15.5079  -20.1168  -24.8681 C   0  0  0  0  0  0  0  0  0  0  0  0
  -13.7037  -15.1436  -28.5927 C   0  0  2  0  0  0  0  0  0  0  0  0
  -15.4784  -11.3999  -26.0475 F   0  0  0  0  0  0  0  0  0  0  0  0
  -14.6843  -23.4985  -26.4765 C   0  0  2  0  0  0  0  0  0  0  0  0
  -13.3396  -23.9896  -27.0724 C   0  0  1  0  0  0  0  0  0  0  0  0
  -13.3060  -25.4769  -27.5568 C   0  0  2  0  0  0  0  0  0  0  0  0
  -14.5750  -25.8383  -28.3262 N   0  0  2  0  0  0  0  0  0  0  0  0
  -15.8092  -25.5099  -27.4908 C   0  0  2  0  0  0  0  0  0  0  0  0
  -15.8576  -23.9870  -27.3370 C   0  0  2  0  0  0  0  0  0  0  0  0
  -14.1804  -12.5742  -27.9368 H   0  0  0  0  0  0  0  0  0  0  0  0
  -16.6041  -13.1901  -24.4631 H   0  0  0  0  0  0  0  0  0  0  0  0
  -16.6358  -17.9036  -24.1164 H   0  0  0  0  0  0  0  0  0  0  0  0
  -14.3469  -19.0457  -27.8794 H   0  0  0  0  0  0  0  0  0  0  0  0
  -14.0378  -21.4181  -28.2002 H   0  0  0  0  0  0  0  0  0  0  0  0
  -15.5965  -22.1647  -24.2620 H   0  0  0  0  0  0  0  0  0  0  0  0
  -15.9332  -19.7832  -23.9319 H   0  0  0  0  0  0  0  0  0  0  0  0
  -14.1135  -16.0777  -28.9739 H   0  0  0  0  0  0  0  0  0  0  0  0
  -12.6765  -15.3193  -28.2779 H   0  0  0  0  0  0  0  0  0  0  0  0
  -13.6892  -14.4317  -29.4182 H   0  0  0  0  0  0  0  0  0  0  0  0
  -14.7806  -23.9528  -25.4883 H   0  0  0  0  0  0  0  0  0  0  0  0
  -13.0648  -23.3470  -27.9016 H   0  0  0  0  0  0  0  0  0  0  0  0
  -12.5615  -23.8364  -26.3221 H   0  0  0  0  0  0  0  0  0  0  0  0
  -13.2588  -26.2214  -26.7775 H   0  0  0  0  0  0  0  0  0  0  0  0
  -12.5282  -25.7288  -28.2678 H   0  0  0  0  0  0  0  0  0  0  0  0
  -14.5608  -26.8229  -28.5630 H   0  0  0  0  0  0  0  0  0  0  0  0
  -15.7476  -26.0374  -26.5388 H   0  0  0  0  0  0  0  0  0  0  0  0
  -16.6531  -25.9132  -28.0394 H   0  0  0  0  0  0  0  0  0  0  0  0
  -15.8264  -23.5250  -28.3246 H   0  0  0  0  0  0  0  0  0  0  0  0
  -16.7940  -23.6662  -26.8965 H   0  0  0  0  0  0  0  0  0  0  0  0
  -14.6069  -25.3069  -29.1863 H   0  0  0  0  0  0  0  0  0  0  0  0
  1  2  2  0
  1  3  1  0
  1 18  1  0
  2  4  1  0
  2  5  1  0
  3  6  2  0
  3 26  1  0
  4  7  2  0
  4  8  1  0
  5 11  2  0
  6  7  1  0
  6 19  1  0
  7 27  1  0
  8  9  1  0
  8 10  2  0
  9 11  1  0
  9 28  1  0
 11 12  1  0
 12 13  2  0
 12 17  1  0
 13 14  1  0
 13 29  1  0
 14 15  2  0
 14 30  1  0
 15 16  1  0
 15 20  1  0
 16 17  2  0
 16 31  1  0
 17 32  1  0
 18 33  1  6
 18 34  1  0
 18 35  1  0
 20 21  1  0
 20 25  1  0
 20 36  1  1
 21 22  1  0
 21 37  1  6
 21 38  1  0
 22 23  1  0
 22 39  1  1
 22 40  1  0
 23 24  1  0
 23 41  1  6
 23 46  1  0
 24 25  1  0
 24 42  1  1
 24 43  1  0
 25 44  1  6
 25 45  1  0
M  CHG  1  23   1
M  END
