5p
     RDKit          3D

 47 49  0  0  1  0  0  0  0  0999 V2000
  -15.1910  -19.1858  -25.9434 C   0  0  0  0  0  0  0  0  0  0  0  0
  -15.5611  -20.0645  -24.9183 C   0  0  0  0  0  0  0  0  0  0  0  0
  -14.5697  -19.7101  -27.0888 C   0  0  0  0  0  0  0  0  0  0  0  0
  -15.4297  -17.7298  -25.8183 C   0  0  0  0  0  0  0  0  0  0  0  0
  -15.3173  -21.4252  -25.0389 C   0  0  0  0  0  0  0  0  0  0  0  0
  -14.3554  -21.0789  -27.2201 C   0  0  0  0  0  0  0  0  0  0  0  0
  -14.7316  -21.9573  -26.1988 C   0  0  0  0  0  0  0  0  0  0  0  0
  -16.2291  -17.2496  -24.7922 N   0  0  0  0  0  0  0  0  0  0  0  0
  -16.5388  -15.9637  -24.4758 C   0  0  0  0  0  0  0  0  0  0  0  0
  -14.9216  -16.8678  -26.6367 N   0  0  0  0  0  0  0  0  0  0  0  0
  -15.1147  -15.4887  -26.4764 C   0  0  0  0  0  0  0  0  0  0  0  0
  -15.8866  -14.9778  -25.4237 C   0  0  0  0  0  0  0  0  0  0  0  0
  -16.0361  -13.5958  -25.2652 C   0  0  0  0  0  0  0  0  0  0  0  0
  -15.4100  -12.7350  -26.1726 C   0  0  0  0  0  0  0  0  0  0  0  0
  -14.6535  -13.2475  -27.2279 C   0  0  0  0  0  0  0  0  0  0  0  0
  -14.5068  -14.6251  -27.3851 C   0  0  0  0  0  0  0  0  0  0  0  0
  -17.2820  -15.6905  -23.5310 O   0  0  0  0  0  0  0  0  0  0  0  0
  -14.4555  -23.4767  -26.3128 C   0  0  2  0  0  0  0  0  0  0  0  0
  -14.1755  -23.8081  -27.6893 O   0  0  0  0  0  0  0  0  0  0  0  0
  -15.5312  -11.3956  -26.0434 F   0  0  0  0  0  0  0  0  0  0  0  0
  -14.5696  -25.0531  -28.2900 C   0  0  2  0  0  0  0  0  0  0  0  0
  -13.8796  -26.3267  -27.7594 C   0  0  2  0  0  0  0  0  0  0  0  0
  -12.4868  -26.4046  -28.0337 O   0  0  0  0  0  0  0  0  0  0  0  0
  -12.1674  -26.9529  -29.3074 C   0  0  2  0  0  0  0  0  0  0  0  0
  -15.6673  -24.2481  -25.7447 C   0  0  2  0  0  0  0  0  0  0  0  0
  -13.1603  -23.7624  -25.5444 C   0  0  2  0  0  0  0  0  0  0  0  0
  -16.0255  -19.7124  -24.0080 H   0  0  0  0  0  0  0  0  0  0  0  0
  -14.2639  -19.0631  -27.8991 H   0  0  0  0  0  0  0  0  0  0  0  0
  -15.5896  -22.0523  -24.2041 H   0  0  0  0  0  0  0  0  0  0  0  0
  -13.8777  -21.4444  -28.1169 H   0  0  0  0  0  0  0  0  0  0  0  0
  -16.7141  -17.9259  -24.2188 H   0  0  0  0  0  0  0  0  0  0  0  0
  -16.6196  -13.1974  -24.4480 H   0  0  0  0  0  0  0  0  0  0  0  0
  -14.1742  -12.5720  -27.9210 H   0  0  0  0  0  0  0  0  0  0  0  0
  -13.9157  -15.0211  -28.1981 H   0  0  0  0  0  0  0  0  0  0  0  0
  -14.3669  -24.9880  -29.3569 H   0  0  0  0  0  0  0  0  0  0  0  0
  -15.6509  -25.1580  -28.2214 H   0  0  0  0  0  0  0  0  0  0  0  0
  -14.4030  -27.2203  -28.1037 H   0  0  0  0  0  0  0  0  0  0  0  0
  -13.9658  -26.3390  -26.6861 H   0  0  0  0  0  0  0  0  0  0  0  0
  -11.0856  -26.9621  -29.4363 H   0  0  0  0  0  0  0  0  0  0  0  0
  -12.5894  -26.3621  -30.1208 H   0  0  0  0  0  0  0  0  0  0  0  0
  -12.5206  -27.9810  -29.3985 H   0  0  0  0  0  0  0  0  0  0  0  0
  -15.7492  -24.1020  -24.6687 H   0  0  0  0  0  0  0  0  0  0  0  0
  -15.7011  -25.3204  -25.8884 H   0  0  0  0  0  0  0  0  0  0  0  0
  -16.5470  -23.8579  -26.2291 H   0  0  0  0  0  0  0  0  0  0  0  0
  -13.2988  -23.7139  -24.4632 H   0  0  0  0  0  0  0  0  0  0  0  0
  -12.4509  -22.9863  -25.8081 H   0  0  0  0  0  0  0  0  0  0  0  0
  -12.7000  -24.7160  -25.7997 H   0  0  0  0  0  0  0  0  0  0  0  0
  1  2  1  0
  1  3  2  0
  1  4  1  0
  2  5  2  0
  2 27  1  0
  3  6  1  0
  3 28  1  0
  4  8  1  0
  4 10  2  0
  5  7  1  0
  5 29  1  0
  6  7  2  0
  6 30  1  0
  7 18  1  0
  8  9  1  0
  8 31  1  0
  9 12  1  0
  9 17  2  0
 10 11  1  0
 11 12  2  0
 11 16  1  0
 12 13  1  0
 13 14  2  0
 13 32  1  0
 14 15  1  0
 14 20  1  0
 15 16  2  0
 15 33  1  0
 16 34  1  0
 18 19  1  6
 18 25  1  0
 18 26  1  0
 19 21  1  0
 21 22  1  0
 21 35  1  6
 21 36  1  0
 22 23  1  0
 22 37  1  6
 22 38  1  0
 23 24  1  0
 24 39  1  6
 24 40  1  0
 24 41  1  0
 25 42  1  1
 25 43  1  0
 25 44  1  0
 26 45  1  1
 26 46  1  0
 26 47  1  0
M  END
