5i
     RDKit          3D

 40 42  0  0  1  0  0  0  0  0999 V2000
  -14.5897  -14.6041  -27.4611 C   0  0  0  0  0  0  0  0  0  0  0  0
  -15.1416  -15.4897  -26.5178 C   0  0  0  0  0  0  0  0  0  0  0  0
  -14.7057  -13.2253  -27.2494 C   0  0  0  0  0  0  0  0  0  0  0  0
  -15.8661  -14.9832  -25.4307 C   0  0  0  0  0  0  0  0  0  0  0  0
  -14.9466  -16.8798  -26.6496 N   0  0  0  0  0  0  0  0  0  0  0  0
  -15.3900  -12.7349  -26.1389 C   0  0  0  0  0  0  0  0  0  0  0  0
  -15.9929  -13.6098  -25.2349 C   0  0  0  0  0  0  0  0  0  0  0  0
  -16.4980  -15.9601  -24.4680 C   0  0  0  0  0  0  0  0  0  0  0  0
  -16.1068  -17.2370  -24.7126 N   0  0  0  0  0  0  0  0  0  0  0  0
  -17.3043  -15.6782  -23.5829 O   0  0  0  0  0  0  0  0  0  0  0  0
  -15.3878  -17.7317  -25.7817 C   0  0  0  0  0  0  0  0  0  0  0  0
  -15.1914  -19.1941  -25.9130 C   0  0  0  0  0  0  0  0  0  0  0  0
  -14.5030  -19.6970  -27.0252 C   0  0  0  0  0  0  0  0  0  0  0  0
  -14.2844  -21.0592  -27.1697 C   0  0  0  0  0  0  0  0  0  0  0  0
  -14.7454  -21.9607  -26.2090 C   0  0  0  0  0  0  0  0  0  0  0  0
  -15.4527  -21.4673  -25.1040 C   0  0  0  0  0  0  0  0  0  0  0  0
  -15.6775  -20.1004  -24.9593 C   0  0  0  0  0  0  0  0  0  0  0  0
  -14.4066  -23.4574  -26.3184 C   0  0  2  0  0  0  0  0  0  0  0  0
  -13.9804  -23.8622  -27.6036 O   0  0  0  0  0  0  0  0  0  0  0  0
  -15.6214  -24.3583  -26.0887 C   0  0  2  0  0  0  0  0  0  0  0  0
  -13.2611  -23.7721  -25.3533 C   0  0  2  0  0  0  0  0  0  0  0  0
  -13.8276  -15.1009  -28.6845 C   0  0  2  0  0  0  0  0  0  0  0  0
  -14.2583  -12.5240  -27.9409 H   0  0  0  0  0  0  0  0  0  0  0  0
  -15.4526  -11.6652  -25.9914 H   0  0  0  0  0  0  0  0  0  0  0  0
  -16.5367  -13.2231  -24.3845 H   0  0  0  0  0  0  0  0  0  0  0  0
  -16.5532  -17.9103  -24.1051 H   0  0  0  0  0  0  0  0  0  0  0  0
  -14.1213  -19.0354  -27.7899 H   0  0  0  0  0  0  0  0  0  0  0  0
  -13.7219  -21.4083  -28.0233 H   0  0  0  0  0  0  0  0  0  0  0  0
  -15.8107  -22.1352  -24.3331 H   0  0  0  0  0  0  0  0  0  0  0  0
  -16.2173  -19.7645  -24.0863 H   0  0  0  0  0  0  0  0  0  0  0  0
  -13.7820  -24.8068  -27.5770 H   0  0  0  0  0  0  0  0  0  0  0  0
  -16.4301  -24.0379  -26.7379 H   0  0  0  0  0  0  0  0  0  0  0  0
  -15.9429  -24.3193  -25.0498 H   0  0  0  0  0  0  0  0  0  0  0  0
  -15.4229  -25.4021  -26.3322 H   0  0  0  0  0  0  0  0  0  0  0  0
  -12.3682  -23.1990  -25.6031 H   0  0  0  0  0  0  0  0  0  0  0  0
  -13.0096  -24.8227  -25.3943 H   0  0  0  0  0  0  0  0  0  0  0  0
  -13.5242  -23.5414  -24.3205 H   0  0  0  0  0  0  0  0  0  0  0  0
  -13.6120  -14.2956  -29.3876 H   0  0  0  0  0  0  0  0  0  0  0  0
  -14.3979  -15.8602  -29.2194 H   0  0  0  0  0  0  0  0  0  0  0  0
  -12.8839  -15.5458  -28.3792 H   0  0  0  0  0  0  0  0  0  0  0  0
  1  2  2  0
  1  3  1  0
  1 22  1  0
  2  4  1  0
  2  5  1  0
  3  6  2  0
  3 23  1  0
  4  7  2  0
  4  8  1  0
  5 11  2  0
  6  7  1  0
  6 24  1  0
  7 25  1  0
  8  9  1  0
  8 10  2  0
  9 11  1  0
  9 26  1  0
 11 12  1  0
 12 13  2  0
 12 17  1  0
 13 14  1  0
 13 27  1  0
 14 15  2  0
 14 28  1  0
 15 16  1  0
 15 18  1  0
 16 17  2  0
 16 29  1  0
 17 30  1  0
 18 19  1  6
 18 20  1  0
 18 21  1  0
 19 31  1  0
 20 32  1  6
 20 33  1  0
 20 34  1  0
 21 35  1  6
 21 36  1  0
 21 37  1  0
 22 38  1  6
 22 39  1  0
 22 40  1  0
M  END
