5o adjust
     RDKit          3D

 47 49  0  0  1  0  0  0  0  0999 V2000
  -15.2134  -19.1973  -25.9464 C   0  0  0  0  0  0  0  0  0  0  0  0
  -14.4701  -19.7022  -27.0244 C   0  0  0  0  0  0  0  0  0  0  0  0
  -15.7417  -20.1012  -25.0046 C   0  0  0  0  0  0  0  0  0  0  0  0
  -14.2102  -21.0605  -27.1397 C   0  0  0  0  0  0  0  0  0  0  0  0
  -15.4831  -21.4579  -25.1168 C   0  0  0  0  0  0  0  0  0  0  0  0
  -14.9465  -16.8835  -26.6444 N   0  0  0  0  0  0  0  0  0  0  0  0
  -14.7039  -21.9577  -26.1772 C   0  0  0  0  0  0  0  0  0  0  0  0
  -14.2861  -23.4418  -26.1772 C   0  0  1  0  0  0  0  0  0  0  0  0
  -15.1319  -15.4975  -26.5091 C   0  0  0  0  0  0  0  0  0  0  0  0
  -15.8704  -14.9707  -25.4304 C   0  0  0  0  0  0  0  0  0  0  0  0
  -15.4317  -12.7404  -26.2368 C   0  0  0  0  0  0  0  0  0  0  0  0
  -14.6994  -13.2517  -27.2996 C   0  0  0  0  0  0  0  0  0  0  0  0
  -16.0278  -13.5821  -25.2854 C   0  0  0  0  0  0  0  0  0  0  0  0
  -14.5455  -14.6285  -27.4511 C   0  0  0  0  0  0  0  0  0  0  0  0
  -16.4800  -15.9544  -24.4563 C   0  0  0  0  0  0  0  0  0  0  0  0
  -16.1939  -17.2463  -24.7702 N   0  0  0  0  0  0  0  0  0  0  0  0
  -15.4344  -17.7396  -25.8162 C   0  0  0  0  0  0  0  0  0  0  0  0
  -17.1964  -15.6975  -23.4980 O   0  0  0  0  0  0  0  0  0  0  0  0
  -15.4699  -24.3001  -25.6328 C   0  0  1  0  0  0  0  0  0  0  0  0
  -13.9080  -23.8289  -27.5218 O   0  0  0  0  0  0  0  0  0  0  0  0
  -12.9922  -23.5105  -25.2981 C   0  0  1  0  0  0  0  0  0  0  0  0
  -13.7677  -15.1436  -28.6598 C   0  0  1  0  0  0  0  0  0  0  0  0
  -15.5446  -11.3985  -26.2045 F   0  0  0  0  0  0  0  0  0  0  0  0
  -14.1223  -25.1644  -28.0142 C   0  0  2  0  0  0  0  0  0  0  0  0
  -13.3022  -26.3297  -27.3530 C   0  0  2  0  0  0  0  0  0  0  0  0
  -12.2507  -26.8702  -28.1503 O   0  0  0  0  0  0  0  0  0  0  0  0
  -14.0572  -19.0359  -27.7737 H   0  0  0  0  0  0  0  0  0  0  0  0
  -16.3822  -19.7795  -24.1930 H   0  0  0  0  0  0  0  0  0  0  0  0
  -13.5818  -21.4049  -27.9418 H   0  0  0  0  0  0  0  0  0  0  0  0
  -15.8728  -22.1226  -24.3598 H   0  0  0  0  0  0  0  0  0  0  0  0
  -14.2646  -12.5530  -28.0024 H   0  0  0  0  0  0  0  0  0  0  0  0
  -16.5922  -13.1665  -24.4566 H   0  0  0  0  0  0  0  0  0  0  0  0
  -16.6610  -17.9115  -24.1697 H   0  0  0  0  0  0  0  0  0  0  0  0
  -15.5726  -24.1695  -24.5583 H   0  0  0  0  0  0  0  0  0  0  0  0
  -16.4158  -24.0244  -26.1070 H   0  0  0  0  0  0  0  0  0  0  0  0
  -15.3300  -25.3692  -25.7724 H   0  0  0  0  0  0  0  0  0  0  0  0
  -13.1977  -23.2066  -24.2662 H   0  0  0  0  0  0  0  0  0  0  0  0
  -12.5103  -24.4647  -25.2197 H   0  0  0  0  0  0  0  0  0  0  0  0
  -12.1947  -22.8323  -25.6586 H   0  0  0  0  0  0  0  0  0  0  0  0
  -13.5940  -14.3688  -29.4073 H   0  0  0  0  0  0  0  0  0  0  0  0
  -12.8029  -15.5453  -28.3470 H   0  0  0  0  0  0  0  0  0  0  0  0
  -14.3634  -15.9364  -29.1301 H   0  0  0  0  0  0  0  0  0  0  0  0
  -13.9564  -25.1645  -29.0875 H   0  0  0  0  0  0  0  0  0  0  0  0
  -15.1880  -25.3913  -27.9896 H   0  0  0  0  0  0  0  0  0  0  0  0
  -13.9745  -27.1548  -27.1138 H   0  0  0  0  0  0  0  0  0  0  0  0
  -12.8503  -26.0769  -26.4053 H   0  0  0  0  0  0  0  0  0  0  0  0
  -11.4939  -27.0384  -27.5681 H   0  0  0  0  0  0  0  0  0  0  0  0
  1  2  1  0
  1  3  2  0
  1 17  1  0
  2  4  2  0
  2 27  1  0
  3  5  1  0
  3 28  1  0
  4  7  1  0
  4 29  1  0
  5  7  2  0
  5 30  1  0
  6  9  1  0
  6 17  2  0
  7  8  1  0
  8 19  1  0
  8 20  1  6
  8 21  1  0
  9 10  2  0
  9 14  1  0
 10 13  1  0
 10 15  1  0
 11 12  1  0
 11 13  2  0
 11 23  1  0
 12 14  2  0
 12 31  1  0
 13 32  1  0
 14 22  1  0
 15 16  1  0
 15 18  2  0
 16 17  1  0
 16 33  1  0
 19 34  1  1
 19 35  1  0
 19 36  1  0
 20 24  1  0
 21 37  1  1
 21 38  1  0
 21 39  1  0
 22 40  1  6
 22 41  1  0
 22 42  1  0
 24 25  1  0
 24 43  1  6
 24 44  1  0
 25 26  1  0
 25 45  1  1
 25 46  1  0
 26 47  1  0
M  END
