5e
     RDKit          3D

 37 39  0  0  1  0  0  0  0  0999 V2000
  -14.5175  -14.7283  -27.4207 C   0  0  0  0  0  0  0  0  0  0  0  0
  -15.0886  -15.5386  -26.4433 C   0  0  0  0  0  0  0  0  0  0  0  0
  -14.7082  -13.3562  -27.3434 C   0  0  0  0  0  0  0  0  0  0  0  0
  -15.8702  -15.0023  -25.4114 C   0  0  0  0  0  0  0  0  0  0  0  0
  -14.8481  -16.8991  -26.5184 N   0  0  0  0  0  0  0  0  0  0  0  0
  -15.4562  -12.8316  -26.2928 C   0  0  0  0  0  0  0  0  0  0  0  0
  -16.0570  -13.6313  -25.3272 C   0  0  0  0  0  0  0  0  0  0  0  0
  -16.5017  -15.9469  -24.4134 C   0  0  0  0  0  0  0  0  0  0  0  0
  -16.1856  -17.2400  -24.6879 N   0  0  0  0  0  0  0  0  0  0  0  0
  -17.2396  -15.6321  -23.4778 O   0  0  0  0  0  0  0  0  0  0  0  0
  -15.3908  -17.7346  -25.7053 C   0  0  0  0  0  0  0  0  0  0  0  0
  -15.2116  -19.1724  -25.8815 C   0  0  0  0  0  0  0  0  0  0  0  0
  -15.7322  -20.0959  -24.9704 C   0  0  0  0  0  0  0  0  0  0  0  0
  -15.4954  -21.4478  -25.1634 C   0  0  0  0  0  0  0  0  0  0  0  0
  -14.7635  -21.8852  -26.2739 C   0  0  0  0  0  0  0  0  0  0  0  0
  -14.2586  -20.9628  -27.1806 C   0  0  0  0  0  0  0  0  0  0  0  0
  -14.4892  -19.6196  -26.9952 C   0  0  0  0  0  0  0  0  0  0  0  0
  -14.3765  -23.3451  -26.4196 C   0  0  2  0  0  0  0  0  0  0  0  0
  -13.9871  -23.7348  -27.7112 O   0  0  0  0  0  0  0  0  0  0  0  0
  -15.6232  -11.1623  -26.1757 Cl  0  0  0  0  0  0  0  0  0  0  0  0
  -15.5417  -24.2869  -26.2335 C   0  0  2  0  0  0  0  0  0  0  0  0
  -13.2061  -23.5796  -25.4774 C   0  0  2  0  0  0  0  0  0  0  0  0
  -13.9249  -15.1533  -28.2173 H   0  0  0  0  0  0  0  0  0  0  0  0
  -14.2606  -12.6992  -28.0760 H   0  0  0  0  0  0  0  0  0  0  0  0
  -16.6400  -13.1873  -24.5316 H   0  0  0  0  0  0  0  0  0  0  0  0
  -16.6870  -17.9020  -24.1082 H   0  0  0  0  0  0  0  0  0  0  0  0
  -16.2904  -19.7879  -24.0973 H   0  0  0  0  0  0  0  0  0  0  0  0
  -15.8487  -22.1412  -24.4165 H   0  0  0  0  0  0  0  0  0  0  0  0
  -13.6565  -21.2780  -28.0187 H   0  0  0  0  0  0  0  0  0  0  0  0
  -14.0763  -18.9357  -27.7237 H   0  0  0  0  0  0  0  0  0  0  0  0
  -13.7689  -24.6732  -27.6775 H   0  0  0  0  0  0  0  0  0  0  0  0
  -16.3471  -23.9942  -26.9063 H   0  0  0  0  0  0  0  0  0  0  0  0
  -15.9336  -24.2495  -25.2211 H   0  0  0  0  0  0  0  0  0  0  0  0
  -15.3010  -25.3301  -26.4427 H   0  0  0  0  0  0  0  0  0  0  0  0
  -12.4031  -22.8649  -25.6552 H   0  0  0  0  0  0  0  0  0  0  0  0
  -12.8026  -24.5721  -25.6306 H   0  0  0  0  0  0  0  0  0  0  0  0
  -13.4964  -23.4901  -24.4294 H   0  0  0  0  0  0  0  0  0  0  0  0
  1  2  2  0
  1  3  1  0
  1 23  1  0
  2  4  1  0
  2  5  1  0
  3  6  2  0
  3 24  1  0
  4  7  2  0
  4  8  1  0
  5 11  2  0
  6  7  1  0
  6 20  1  0
  7 25  1  0
  8  9  1  0
  8 10  2  0
  9 11  1  0
  9 26  1  0
 11 12  1  0
 12 13  2  0
 12 17  1  0
 13 14  1  0
 13 27  1  0
 14 15  2  0
 14 28  1  0
 15 16  1  0
 15 18  1  0
 16 17  2  0
 16 29  1  0
 17 30  1  0
 18 19  1  6
 18 21  1  0
 18 22  1  0
 19 31  1  0
 21 32  1  6
 21 33  1  0
 21 34  1  0
 22 35  1  6
 22 36  1  0
 22 37  1  0
M  END
