1t
     RDKit          3D

 53 56  0  0  1  0  0  0  0  0999 V2000
   13.0435    7.6520   26.5608 Cl  0  0  0  0  0  0  0  0  0  0  0  0
   11.3321    7.8207   26.4391 C   0  0  0  0  0  0  0  0  0  0  0  0
   10.7820    8.3906   25.2895 C   0  0  0  0  0  0  0  0  0  0  0  0
    9.3876    8.5062   25.2365 C   0  0  0  0  0  0  0  0  0  0  0  0
    8.5617    8.0635   26.3142 C   0  0  0  0  0  0  0  0  0  0  0  0
    7.2171    8.3337   25.9361 C   0  0  0  0  0  0  0  0  0  0  0  0
    9.1520    7.4957   27.4514 C   0  0  0  0  0  0  0  0  0  0  0  0
   10.5387    7.3816   27.4966 C   0  0  0  0  0  0  0  0  0  0  0  0
    7.2329    8.9115   24.6841 C   0  0  0  0  0  0  0  0  0  0  0  0
    5.7798    9.4516   23.7173 S   0  0  1  0  0  0  0  0  0  0  0  0
    4.6717    9.2587   24.6024 O   0  0  0  0  0  0  0  0  0  0  0  0
    5.9649   10.7221   23.0627 O   0  0  0  0  0  0  0  0  0  0  0  0
    5.6290    8.3253   22.4696 N   0  0  0  0  0  0  0  0  0  0  0  0
    5.4417    6.9107   22.7309 C   0  0  1  0  0  0  0  0  0  0  0  0
    4.0870    6.3630   22.2954 C   0  0  1  0  0  0  0  0  0  0  0  0
    4.3958    4.8831   22.0150 C   0  0  1  0  0  0  0  0  0  0  0  0
    6.4069    6.0251   21.9629 C   0  0  0  0  0  0  0  0  0  0  0  0
    7.5766    6.3386   21.7509 O   0  0  0  0  0  0  0  0  0  0  0  0
    5.8100    4.8683   21.6346 N   0  0  0  0  0  0  0  0  0  0  0  0
    6.4608    3.6920   21.0252 C   0  0  1  0  0  0  0  0  0  0  0  0
    5.9763    2.4062   21.7276 C   0  0  1  0  0  0  0  0  0  0  0  0
    6.2651    3.6316   19.4908 C   0  0  0  0  0  0  0  0  0  0  0  0
    5.3887    4.3363   18.9859 O   0  0  0  0  0  0  0  0  0  0  0  0
    7.0216    2.7913   18.7364 N   0  0  0  0  0  0  0  0  0  0  0  0
    6.8197    2.6227   17.2899 C   0  0  1  0  0  0  0  0  0  0  0  0
    8.1082    3.0277   16.5563 C   0  0  1  0  0  0  0  0  0  0  0  0
    9.1819    2.2163   17.0133 O   0  0  0  0  0  0  0  0  0  0  0  0
    9.4160    2.4126   18.4009 C   0  0  1  0  0  0  0  0  0  0  0  0
    8.1644    1.9838   19.1874 C   0  0  1  0  0  0  0  0  0  0  0  0
    8.5419    9.0127   24.2611 N   0  0  0  0  0  0  0  0  0  0  0  0
   11.4201    8.7226   24.4870 H   0  0  0  0  0  0  0  0  0  0  0  0
    6.3211    8.1395   26.5049 H   0  0  0  0  0  0  0  0  0  0  0  0
    8.5441    7.1560   28.2763 H   0  0  0  0  0  0  0  0  0  0  0  0
   11.0096    6.9465   28.3671 H   0  0  0  0  0  0  0  0  0  0  0  0
    6.1033    8.6335   21.6325 H   0  0  0  0  0  0  0  0  0  0  0  0
    5.5902    6.7259   23.7940 H   0  0  0  0  0  0  0  0  0  0  0  0
    3.3124    6.4951   23.0511 H   0  0  0  0  0  0  0  0  0  0  0  0
    3.7540    6.8538   21.3792 H   0  0  0  0  0  0  0  0  0  0  0  0
    4.2561    4.2854   22.9166 H   0  0  0  0  0  0  0  0  0  0  0  0
    3.7543    4.4797   21.2307 H   0  0  0  0  0  0  0  0  0  0  0  0
    7.5263    3.7881   21.2212 H   0  0  0  0  0  0  0  0  0  0  0  0
    6.5125    1.5233   21.3843 H   0  0  0  0  0  0  0  0  0  0  0  0
    6.1346    2.4685   22.8040 H   0  0  0  0  0  0  0  0  0  0  0  0
    4.9159    2.2205   21.5552 H   0  0  0  0  0  0  0  0  0  0  0  0
    6.5824    1.5786   17.0799 H   0  0  0  0  0  0  0  0  0  0  0  0
    5.9845    3.2068   16.9026 H   0  0  0  0  0  0  0  0  0  0  0  0
    7.9881    2.8700   15.4866 H   0  0  0  0  0  0  0  0  0  0  0  0
    8.3308    4.0851   16.7066 H   0  0  0  0  0  0  0  0  0  0  0  0
   10.2715    1.8068   18.6967 H   0  0  0  0  0  0  0  0  0  0  0  0
    9.6761    3.4529   18.6036 H   0  0  0  0  0  0  0  0  0  0  0  0
    8.3718    2.0732   20.2476 H   0  0  0  0  0  0  0  0  0  0  0  0
    7.9532    0.9285   19.0096 H   0  0  0  0  0  0  0  0  0  0  0  0
    8.7999    9.4141   23.3720 H   0  0  0  0  0  0  0  0  0  0  0  0
  1  2  1  0
  2  3  2  0
  2  8  1  0
  3  4  1  0
  3 31  1  0
  4  5  2  0
  4 30  1  0
  5  6  1  0
  5  7  1  0
  6  9  2  0
  6 32  1  0
  7  8  2  0
  7 33  1  0
  8 34  1  0
  9 10  1  0
  9 30  1  0
 10 11  2  0
 10 12  2  0
 10 13  1  6
 13 14  1  0
 13 35  1  0
 14 15  1  0
 14 17  1  0
 14 36  1  1
 15 16  1  0
 15 37  1  1
 15 38  1  0
 16 19  1  0
 16 39  1  1
 16 40  1  0
 17 18  2  0
 17 19  1  0
 19 20  1  0
 20 21  1  0
 20 22  1  0
 20 41  1  6
 21 42  1  6
 21 43  1  0
 21 44  1  0
 22 23  2  0
 22 24  1  0
 24 25  1  0
 24 29  1  0
 25 26  1  0
 25 45  1  1
 25 46  1  0
 26 27  1  0
 26 47  1  6
 26 48  1  0
 27 28  1  0
 28 29  1  0
 28 49  1  1
 28 50  1  0
 29 51  1  1
 29 52  1  0
 30 53  1  0
M  END
