ligand_14
     RDKit          3D

 42 45  0  0  1  0  0  0  0  0999 V2000
   25.1025    7.4594   16.7851 C   0  0  2  0  0  0  0  0  0  0  0  0
   25.1011    6.1570   15.9769 C   0  0  0  0  0  0  0  0  0  0  0  0
   25.1629    6.2481   14.7547 O   0  0  0  0  0  0  0  0  0  0  0  0
   25.0788    4.9479   16.5794 N   0  0  0  0  0  0  0  0  0  0  0  0
   24.8409    4.5961   17.9228 C   0  0  0  0  0  0  0  0  0  0  0  0
   24.0022    5.3465   18.7451 C   0  0  0  0  0  0  0  0  0  0  0  0
   23.7904    5.0252   20.0898 C   0  0  0  0  0  0  0  0  0  0  0  0
   23.0028    5.8092   20.9588 N   0  0  0  0  0  0  0  0  0  0  0  0
   22.2558    6.9888   20.7904 C   0  0  0  0  0  0  0  0  0  0  0  0
   22.2373    7.6003   19.5825 N   0  0  0  0  0  0  0  0  0  0  0  0
   21.3741    8.6023   19.4268 C   0  0  0  0  0  0  0  0  0  0  0  0
   21.0162    9.4559   18.3752 C   0  0  0  0  0  0  0  0  0  0  0  0
   19.9961   10.2504   18.8442 C   0  0  0  0  0  0  0  0  0  0  0  0
   19.7070   10.0428   20.1100 N   0  0  0  0  0  0  0  0  0  0  0  0
   20.5653    9.0325   20.4834 N   0  0  0  0  0  0  0  0  0  0  0  0
   20.7084    8.4371   21.7157 C   0  0  0  0  0  0  0  0  0  0  0  0
   20.0018    8.9461   22.8159 N   0  0  0  0  0  0  0  0  0  0  0  0
   20.1822    8.3701   24.1411 C   0  0  1  0  0  0  0  0  0  0  0  0
   19.0151    8.3449   25.0972 C   0  0  1  0  0  0  0  0  0  0  0  0
   19.5219    7.0565   24.4906 C   0  0  1  0  0  0  0  0  0  0  0  0
   21.5634    7.3890   21.8789 N   0  0  0  0  0  0  0  0  0  0  0  0
   21.6347    9.5160   17.0655 C   0  0  0  0  0  0  0  0  0  0  0  0
   22.1415    9.5579   16.0283 N   0  0  0  0  0  0  0  0  0  0  0  0
   24.4015    3.8694   20.5872 C   0  0  0  0  0  0  0  0  0  0  0  0
   25.2120    3.0801   19.7689 C   0  0  0  0  0  0  0  0  0  0  0  0
   25.4325    3.4422   18.4396 C   0  0  0  0  0  0  0  0  0  0  0  0
   25.6713    7.3452   17.7085 H   0  0  0  0  0  0  0  0  0  0  0  0
   24.0818    7.7442   17.0415 H   0  0  0  0  0  0  0  0  0  0  0  0
   25.5503    8.2701   16.2092 H   0  0  0  0  0  0  0  0  0  0  0  0
   25.3441    4.1630   16.0024 H   0  0  0  0  0  0  0  0  0  0  0  0
   23.5055    6.2077   18.3242 H   0  0  0  0  0  0  0  0  0  0  0  0
   22.8674    5.4329   21.8859 H   0  0  0  0  0  0  0  0  0  0  0  0
   19.4355   10.9937   18.2960 H   0  0  0  0  0  0  0  0  0  0  0  0
   19.4092    9.7561   22.7022 H   0  0  0  0  0  0  0  0  0  0  0  0
   21.1712    8.5755   24.5466 H   0  0  0  0  0  0  0  0  0  0  0  0
   19.2240    8.5160   26.1513 H   0  0  0  0  0  0  0  0  0  0  0  0
   18.0566    8.7203   24.7437 H   0  0  0  0  0  0  0  0  0  0  0  0
   18.9053    6.5797   23.7309 H   0  0  0  0  0  0  0  0  0  0  0  0
   20.0688    6.3774   25.1415 H   0  0  0  0  0  0  0  0  0  0  0  0
   24.2476    3.5736   21.6149 H   0  0  0  0  0  0  0  0  0  0  0  0
   25.6724    2.1880   20.1668 H   0  0  0  0  0  0  0  0  0  0  0  0
   26.0810    2.8232   17.8390 H   0  0  0  0  0  0  0  0  0  0  0  0
  1  2  1  0
  1 27  1  1
  1 28  1  0
  1 29  1  0
  2  3  2  0
  2  4  1  0
  4  5  1  0
  4 30  1  0
  5 26  1  0
  5  6  2  0
  6  7  1  0
  6 31  1  0
  7  8  1  0
  7 24  2  0
  8  9  1  0
  8 32  1  0
  9 21  1  0
  9 10  2  0
 10 11  1  0
 11 15  1  0
 11 12  2  0
 12 13  1  0
 12 22  1  0
 13 14  2  0
 13 33  1  0
 14 15  1  0
 15 16  1  0
 16 17  1  0
 16 21  2  0
 17 18  1  0
 17 34  1  0
 18 20  1  0
 18 19  1  0
 18 35  1  1
 19 20  1  0
 19 36  1  1
 19 37  1  0
 20 38  1  6
 20 39  1  0
 22 23  3  0
 24 25  1  0
 24 40  1  0
 25 26  2  0
 25 41  1  0
 26 42  1  0
M  END
