68 flip
     RDKit          3D

 43 46  0  0  1  0  0  0  0  0999 V2000
    3.2841  -48.3710    6.6146 O   0  0  0  0  0  0  0  0  0  0  0  0
    2.8143  -49.5347    6.5770 C   0  0  0  0  0  0  0  0  0  0  0  0
    3.4962  -50.5779    6.7423 O   0  0  0  0  0  0  0  0  0  0  0  0
    1.3423  -49.6929    6.3422 C   0  0  0  0  0  0  0  0  0  0  0  0
   -0.5669  -50.8143    6.3914 C   0  0  0  0  0  0  0  0  0  0  0  0
   -1.5208  -51.8322    6.5602 C   0  0  0  0  0  0  0  0  0  0  0  0
   -2.8438  -51.5172    6.2356 C   0  0  0  0  0  0  0  0  0  0  0  0
   -3.1892  -50.2460    5.7740 C   0  0  0  0  0  0  0  0  0  0  0  0
   -2.2320  -49.2404    5.6100 C   0  0  0  0  0  0  0  0  0  0  0  0
   -0.8908  -49.5288    5.9045 C   0  0  0  0  0  0  0  0  0  0  0  0
    0.3473  -48.8042    5.8415 C   0  0  0  0  0  0  0  0  0  0  0  0
    0.5008  -47.3774    5.3428 C   0  0  2  0  0  0  0  0  0  0  0  0
    0.4872  -46.3579    6.4975 C   0  0  2  0  0  0  0  0  0  0  0  0
   -0.8510  -46.2513    7.2493 C   0  0  2  0  0  0  0  0  0  0  0  0
   -1.8626  -45.6697    6.4452 O   0  0  0  0  0  0  0  0  0  0  0  0
   -3.1589  -45.4636    6.8983 C   0  0  0  0  0  0  0  0  0  0  0  0
   -5.8876  -44.8731    7.3596 C   0  0  0  0  0  0  0  0  0  0  0  0
   -5.2633  -44.4452    6.1977 C   0  0  0  0  0  0  0  0  0  0  0  0
   -3.9302  -44.7540    5.9724 C   0  0  0  0  0  0  0  0  0  0  0  0
   -1.2369  -52.8060    6.9253 H   0  0  0  0  0  0  0  0  0  0  0  0
   -3.6242  -52.2606    6.3406 H   0  0  0  0  0  0  0  0  0  0  0  0
   -4.8349  -49.9088    5.4012 Cl  0  0  0  0  0  0  0  0  0  0  0  0
   -2.5227  -48.2597    5.2618 H   0  0  0  0  0  0  0  0  0  0  0  0
   -0.2714  -47.1234    4.6180 H   0  0  0  0  0  0  0  0  0  0  0  0
    1.4412  -47.2773    4.7971 H   0  0  0  0  0  0  0  0  0  0  0  0
    0.7642  -45.3720    6.1200 H   0  0  0  0  0  0  0  0  0  0  0  0
    1.2707  -46.6377    7.2050 H   0  0  0  0  0  0  0  0  0  0  0  0
   -0.7134  -45.6364    8.1382 H   0  0  0  0  0  0  0  0  0  0  0  0
   -1.1468  -47.2573    7.5334 H   0  0  0  0  0  0  0  0  0  0  0  0
   -3.4717  -44.4350    5.0455 H   0  0  0  0  0  0  0  0  0  0  0  0
   -5.1778  -45.6101    8.3321 C   0  0  0  0  0  0  0  0  0  0  0  0
   -3.7809  -45.8938    8.1436 C   0  0  0  0  0  0  0  0  0  0  0  0
   -3.1358  -46.5949    9.2172 C   0  0  0  0  0  0  0  0  0  0  0  0
   -3.8316  -47.0284   10.3406 C   0  0  0  0  0  0  0  0  0  0  0  0
   -5.1896  -46.7798   10.4717 C   0  0  0  0  0  0  0  0  0  0  0  0
   -5.8620  -46.0657    9.4885 C   0  0  0  0  0  0  0  0  0  0  0  0
   -2.0920  -46.8298    9.2358 H   0  0  0  0  0  0  0  0  0  0  0  0
   -3.2996  -47.5628   11.1131 H   0  0  0  0  0  0  0  0  0  0  0  0
   -5.7171  -47.1324   11.3456 H   0  0  0  0  0  0  0  0  0  0  0  0
   -6.9191  -45.8552    9.6037 H   0  0  0  0  0  0  0  0  0  0  0  0
   -5.8179  -43.8856    5.4591 H   0  0  0  0  0  0  0  0  0  0  0  0
   -6.9278  -44.6442    7.5317 H   0  0  0  0  0  0  0  0  0  0  0  0
    0.7690  -50.9149    6.6593 O   0  0  0  0  0  0  0  0  0  0  0  0
  1  2  2  0
  2  3  1  0
  2  4  1  0
  4 11  2  0
  4 43  1  0
  5  6  1  0
  5 10  2  0
  5 43  1  0
  6  7  2  0
  6 20  1  0
  7  8  1  0
  7 21  1  0
  8  9  2  0
  8 22  1  0
  9 10  1  0
  9 23  1  0
 10 11  1  0
 11 12  1  0
 12 24  1  6
 12 25  1  0
 12 13  1  0
 13 14  1  0
 13 26  1  6
 13 27  1  0
 14 15  1  0
 14 28  1  1
 14 29  1  0
 15 16  1  0
 16 19  2  0
 16 32  1  0
 17 18  2  0
 17 31  1  0
 17 42  1  0
 18 19  1  0
 18 41  1  0
 19 30  1  0
 31 32  2  0
 31 36  1  0
 32 33  1  0
 33 34  2  0
 33 37  1  0
 34 35  1  0
 34 38  1  0
 35 36  2  0
 35 39  1  0
 36 40  1  0
M  CHG  1   3  -1
M  END
