35 flip
     RDKit          3D

 41 43  0  0  1  0  0  0  0  0999 V2000
    3.3266  -48.3925    6.5898 O   0  0  0  0  0  0  0  0  0  0  0  0
    2.8364  -49.5413    6.5847 C   0  0  0  0  0  0  0  0  0  0  0  0
    3.4698  -50.6047    6.8114 O   0  0  0  0  0  0  0  0  0  0  0  0
    1.3674  -49.6682    6.3534 C   0  0  0  0  0  0  0  0  0  0  0  0
   -0.5513  -50.8870    6.4116 C   0  0  0  0  0  0  0  0  0  0  0  0
   -1.5218  -51.8851    6.5670 C   0  0  0  0  0  0  0  0  0  0  0  0
   -2.8391  -51.5459    6.2451 C   0  0  0  0  0  0  0  0  0  0  0  0
   -3.1738  -50.2730    5.7897 C   0  0  0  0  0  0  0  0  0  0  0  0
   -2.2071  -49.2793    5.6321 C   0  0  0  0  0  0  0  0  0  0  0  0
   -0.8668  -49.5758    5.9415 C   0  0  0  0  0  0  0  0  0  0  0  0
    0.3528  -48.8147    5.8883 C   0  0  0  0  0  0  0  0  0  0  0  0
    0.4706  -47.3780    5.4171 C   0  0  2  0  0  0  0  0  0  0  0  0
    0.4398  -46.3831    6.5915 C   0  0  2  0  0  0  0  0  0  0  0  0
   -0.9295  -46.2626    7.2829 C   0  0  2  0  0  0  0  0  0  0  0  0
   -1.8638  -45.6918    6.3653 O   0  0  0  0  0  0  0  0  0  0  0  0
   -3.1658  -45.4754    6.7634 C   0  0  0  0  0  0  0  0  0  0  0  0
   -3.7263  -45.9475    7.9598 C   0  0  0  0  0  0  0  0  0  0  0  0
   -5.0547  -45.6614    8.2934 C   0  0  0  0  0  0  0  0  0  0  0  0
   -5.8342  -44.8866    7.4180 C   0  0  0  0  0  0  0  0  0  0  0  0
   -5.2816  -44.4288    6.2222 C   0  0  0  0  0  0  0  0  0  0  0  0
   -3.9600  -44.7275    5.8980 C   0  0  0  0  0  0  0  0  0  0  0  0
   -1.2728  -52.8736    6.9219 H   0  0  0  0  0  0  0  0  0  0  0  0
   -3.6241  -52.2860    6.3458 H   0  0  0  0  0  0  0  0  0  0  0  0
   -4.2049  -50.0472    5.5525 H   0  0  0  0  0  0  0  0  0  0  0  0
   -2.4802  -48.2944    5.2869 H   0  0  0  0  0  0  0  0  0  0  0  0
   -0.3172  -47.1258    4.7054 H   0  0  0  0  0  0  0  0  0  0  0  0
    1.4052  -47.2458    4.8654 H   0  0  0  0  0  0  0  0  0  0  0  0
    0.7431  -45.3952    6.2390 H   0  0  0  0  0  0  0  0  0  0  0  0
    1.1911  -46.6870    7.3208 H   0  0  0  0  0  0  0  0  0  0  0  0
   -0.8364  -45.6145    8.1575 H   0  0  0  0  0  0  0  0  0  0  0  0
   -1.2548  -47.2453    7.6339 H   0  0  0  0  0  0  0  0  0  0  0  0
   -3.1389  -46.5481    8.6366 H   0  0  0  0  0  0  0  0  0  0  0  0
   -3.5307  -44.3722    4.9737 H   0  0  0  0  0  0  0  0  0  0  0  0
    0.8129  -50.9021    6.6386 N   0  0  0  0  0  0  0  0  0  0  0  0
    1.4379  -51.6366    6.9583 H   0  0  0  0  0  0  0  0  0  0  0  0
   -5.8759  -43.8382    5.5437 H   0  0  0  0  0  0  0  0  0  0  0  0
   -7.4767  -44.4711    7.7701 Cl  0  0  0  0  0  0  0  0  0  0  0  0
   -5.6001  -46.2101    9.6033 C   0  0  1  0  0  0  0  0  0  0  0  0
   -6.6335  -45.9278    9.7975 H   0  0  0  0  0  0  0  0  0  0  0  0
   -5.5445  -47.2988    9.5996 H   0  0  0  0  0  0  0  0  0  0  0  0
   -4.9943  -45.8543   10.4366 H   0  0  0  0  0  0  0  0  0  0  0  0
  1  2  2  0
  2  3  1  0
  2  4  1  0
  4 11  2  0
  4 34  1  0
  5  6  1  0
  5 10  2  0
  5 34  1  0
  6  7  2  0
  6 22  1  0
  7  8  1  0
  7 23  1  0
  8  9  2  0
  8 24  1  0
  9 10  1  0
  9 25  1  0
 10 11  1  0
 11 12  1  0
 12 26  1  6
 12 27  1  0
 12 13  1  0
 13 14  1  0
 13 28  1  6
 13 29  1  0
 14 15  1  0
 14 30  1  1
 14 31  1  0
 15 16  1  0
 16 17  1  0
 16 21  2  0
 17 18  2  0
 17 32  1  0
 18 19  1  0
 18 38  1  0
 19 20  2  0
 19 37  1  0
 20 21  1  0
 20 36  1  0
 21 33  1  0
 34 35  1  0
 38 39  1  1
 38 40  1  0
 38 41  1  0
M  CHG  1   3  -1
M  END
