40
     RDKit          3D

 49 52  0  0  1  0  0  0  0  0999 V2000
    3.3281  -48.3968    6.5764 O   0  0  0  0  0  0  0  0  0  0  0  0
    2.8290  -49.5415    6.5841 C   0  0  0  0  0  0  0  0  0  0  0  0
    3.4538  -50.6069    6.8243 O   0  0  0  0  0  0  0  0  0  0  0  0
    1.3597  -49.6641    6.3509 C   0  0  0  0  0  0  0  0  0  0  0  0
   -0.5586  -50.8828    6.4118 C   0  0  0  0  0  0  0  0  0  0  0  0
   -1.5260  -51.8832    6.5693 C   0  0  0  0  0  0  0  0  0  0  0  0
   -2.8440  -51.5489    6.2459 C   0  0  0  0  0  0  0  0  0  0  0  0
   -3.1802  -50.2775    5.7871 C   0  0  0  0  0  0  0  0  0  0  0  0
   -2.2160  -49.2810    5.6271 C   0  0  0  0  0  0  0  0  0  0  0  0
   -0.8742  -49.5732    5.9368 C   0  0  0  0  0  0  0  0  0  0  0  0
    0.3474  -48.8122    5.8783 C   0  0  0  0  0  0  0  0  0  0  0  0
    0.4741  -47.3774    5.3978 C   0  0  2  0  0  0  0  0  0  0  0  0
    0.4619  -46.3786    6.5682 C   0  0  2  0  0  0  0  0  0  0  0  0
   -0.9106  -46.2392    7.2407 C   0  0  2  0  0  0  0  0  0  0  0  0
   -1.8340  -45.6444    6.3223 O   0  0  0  0  0  0  0  0  0  0  0  0
   -3.1383  -45.4404    6.7220 C   0  0  0  0  0  0  0  0  0  0  0  0
   -4.0856  -44.7425    5.9668 C   0  0  0  0  0  0  0  0  0  0  0  0
   -5.4069  -44.5908    6.4101 C   0  0  0  0  0  0  0  0  0  0  0  0
   -5.7702  -45.1514    7.6336 C   0  0  0  0  0  0  0  0  0  0  0  0
   -4.8327  -45.8386    8.4055 C   0  0  0  0  0  0  0  0  0  0  0  0
   -3.5218  -45.9765    7.9494 C   0  0  0  0  0  0  0  0  0  0  0  0
   -1.2730  -52.8701    6.9263 H   0  0  0  0  0  0  0  0  0  0  0  0
   -3.6280  -52.2908    6.3469 H   0  0  0  0  0  0  0  0  0  0  0  0
   -4.2117  -50.0544    5.5483 H   0  0  0  0  0  0  0  0  0  0  0  0
   -2.4954  -48.2988    5.2788 H   0  0  0  0  0  0  0  0  0  0  0  0
   -0.3213  -47.1176    4.6969 H   0  0  0  0  0  0  0  0  0  0  0  0
    1.4029  -47.2567    4.8331 H   0  0  0  0  0  0  0  0  0  0  0  0
    0.7798  -45.3920    6.2249 H   0  0  0  0  0  0  0  0  0  0  0  0
    1.2023  -46.6924    7.3044 H   0  0  0  0  0  0  0  0  0  0  0  0
   -0.8124  -45.6059    8.1247 H   0  0  0  0  0  0  0  0  0  0  0  0
   -1.2579  -47.2206    7.5771 H   0  0  0  0  0  0  0  0  0  0  0  0
   -3.7972  -44.3081    5.0244 H   0  0  0  0  0  0  0  0  0  0  0  0
   -2.7874  -46.5117    8.5341 H   0  0  0  0  0  0  0  0  0  0  0  0
    0.8047  -50.8975    6.6400 N   0  0  0  0  0  0  0  0  0  0  0  0
    1.4301  -51.6311    6.9622 H   0  0  0  0  0  0  0  0  0  0  0  0
   -5.1172  -46.2678    9.3529 H   0  0  0  0  0  0  0  0  0  0  0  0
   -6.7864  -45.0479    7.9818 H   0  0  0  0  0  0  0  0  0  0  0  0
   -6.3713  -43.9119    5.6891 O   0  0  0  0  0  0  0  0  0  0  0  0
  -10.1071  -43.7735    7.4695 C   0  0  0  0  0  0  0  0  0  0  0  0
   -9.3912  -42.5917    7.2786 C   0  0  0  0  0  0  0  0  0  0  0  0
   -8.1613  -42.6320    6.6265 C   0  0  0  0  0  0  0  0  0  0  0  0
   -7.6497  -43.8523    6.1869 C   0  0  0  0  0  0  0  0  0  0  0  0
   -8.3781  -45.0284    6.3583 C   0  0  0  0  0  0  0  0  0  0  0  0
   -9.6093  -44.9918    7.0078 C   0  0  0  0  0  0  0  0  0  0  0  0
  -11.0531  -43.7480    7.9912 H   0  0  0  0  0  0  0  0  0  0  0  0
   -9.7800  -41.6532    7.6464 H   0  0  0  0  0  0  0  0  0  0  0  0
   -7.5760  -41.7340    6.4999 H   0  0  0  0  0  0  0  0  0  0  0  0
   -7.9585  -45.9680    6.0324 H   0  0  0  0  0  0  0  0  0  0  0  0
  -10.1639  -45.9055    7.1673 H   0  0  0  0  0  0  0  0  0  0  0  0
  1  2  2  0
  2  3  1  0
  2  4  1  0
  4 11  2  0
  4 34  1  0
  5  6  1  0
  5 10  2  0
  5 34  1  0
  6  7  2  0
  6 22  1  0
  7  8  1  0
  7 23  1  0
  8  9  2  0
  8 24  1  0
  9 10  1  0
  9 25  1  0
 10 11  1  0
 11 12  1  0
 12 26  1  6
 12 27  1  0
 12 13  1  0
 13 14  1  0
 13 28  1  6
 13 29  1  0
 14 15  1  0
 14 30  1  1
 14 31  1  0
 15 16  1  0
 16 17  1  0
 16 21  2  0
 17 18  2  0
 17 32  1  0
 18 19  1  0
 18 38  1  0
 19 20  2  0
 19 37  1  0
 20 21  1  0
 20 36  1  0
 21 33  1  0
 34 35  1  0
 38 42  1  0
 39 40  2  0
 39 44  1  0
 39 45  1  0
 40 41  1  0
 40 46  1  0
 41 42  2  0
 41 47  1  0
 42 43  1  0
 43 44  2  0
 43 48  1  0
 44 49  1  0
M  CHG  1   3  -1
M  END
