64
     RDKit          3D

 43 46  0  0  1  0  0  0  0  0999 V2000
    3.2305  -48.0964    6.5000 O   0  0  0  0  0  0  0  0  0  0  0  0
    2.9208  -49.3072    6.5174 C   0  0  0  0  0  0  0  0  0  0  0  0
    3.7489  -50.2408    6.6589 O   0  0  0  0  0  0  0  0  0  0  0  0
    1.4823  -49.6653    6.3664 C   0  0  0  0  0  0  0  0  0  0  0  0
    1.0265  -51.3094    6.8057 S   0  0  0  0  0  0  0  0  0  0  0  0
   -0.6484  -50.9932    6.4364 C   0  0  0  0  0  0  0  0  0  0  0  0
   -1.7139  -51.8996    6.5538 C   0  0  0  0  0  0  0  0  0  0  0  0
   -2.9867  -51.4692    6.2020 C   0  0  0  0  0  0  0  0  0  0  0  0
   -3.2023  -50.1704    5.7539 C   0  0  0  0  0  0  0  0  0  0  0  0
   -2.1452  -49.2672    5.6416 C   0  0  0  0  0  0  0  0  0  0  0  0
   -0.8348  -49.6584    5.9740 C   0  0  0  0  0  0  0  0  0  0  0  0
    0.3818  -48.9010    5.9206 C   0  0  0  0  0  0  0  0  0  0  0  0
    0.4405  -47.4561    5.4130 C   0  0  2  0  0  0  0  0  0  0  0  0
    0.4701  -46.4118    6.5397 C   0  0  2  0  0  0  0  0  0  0  0  0
   -0.8812  -46.2468    7.2231 C   0  0  2  0  0  0  0  0  0  0  0  0
   -1.8811  -45.6853    6.3893 O   0  0  0  0  0  0  0  0  0  0  0  0
   -3.1646  -45.4676    6.8659 C   0  0  0  0  0  0  0  0  0  0  0  0
   -5.6119  -45.2163    8.2766 C   0  0  0  0  0  0  0  0  0  0  0  0
   -4.5617  -45.9558    8.8031 C   0  0  0  0  0  0  0  0  0  0  0  0
   -3.3635  -46.0441    8.1110 C   0  0  0  0  0  0  0  0  0  0  0  0
   -1.5664  -52.9120    6.9005 H   0  0  0  0  0  0  0  0  0  0  0  0
   -4.3019  -52.5773    6.3306 Cl  0  0  0  0  0  0  0  0  0  0  0  0
   -4.2057  -49.8652    5.4874 H   0  0  0  0  0  0  0  0  0  0  0  0
   -2.3245  -48.2581    5.3071 H   0  0  0  0  0  0  0  0  0  0  0  0
   -0.3827  -47.2250    4.7393 H   0  0  0  0  0  0  0  0  0  0  0  0
    1.3349  -47.3217    4.8024 H   0  0  0  0  0  0  0  0  0  0  0  0
    0.8218  -45.4471    6.1770 H   0  0  0  0  0  0  0  0  0  0  0  0
    1.2006  -46.7183    7.2935 H   0  0  0  0  0  0  0  0  0  0  0  0
   -0.7396  -45.5966    8.0903 H   0  0  0  0  0  0  0  0  0  0  0  0
   -1.1806  -47.2568    7.5141 H   0  0  0  0  0  0  0  0  0  0  0  0
   -2.5424  -46.5864    8.5452 H   0  0  0  0  0  0  0  0  0  0  0  0
   -5.4867  -44.5736    7.0181 C   0  0  0  0  0  0  0  0  0  0  0  0
   -4.2690  -44.7253    6.2602 C   0  0  0  0  0  0  0  0  0  0  0  0
   -4.2640  -44.1193    4.9598 C   0  0  0  0  0  0  0  0  0  0  0  0
   -5.3292  -43.3529    4.5015 C   0  0  0  0  0  0  0  0  0  0  0  0
   -6.4596  -43.1702    5.2776 C   0  0  0  0  0  0  0  0  0  0  0  0
   -6.5509  -43.7886    6.5166 C   0  0  0  0  0  0  0  0  0  0  0  0
   -3.4650  -44.2158    4.2585 H   0  0  0  0  0  0  0  0  0  0  0  0
   -5.2723  -42.8842    3.5285 H   0  0  0  0  0  0  0  0  0  0  0  0
   -7.2719  -42.5643    4.9094 H   0  0  0  0  0  0  0  0  0  0  0  0
   -7.4372  -43.6730    7.1092 H   0  0  0  0  0  0  0  0  0  0  0  0
   -4.6721  -46.4534    9.7557 H   0  0  0  0  0  0  0  0  0  0  0  0
   -6.5310  -45.1426    8.8388 H   0  0  0  0  0  0  0  0  0  0  0  0
  1  2  2  0
  2  3  1  0
  2  4  1  0
  4  5  1  0
  4 12  2  0
  5  6  1  0
  6  7  1  0
  6 11  2  0
  7  8  2  0
  7 21  1  0
  8  9  1  0
  8 22  1  0
  9 10  2  0
  9 23  1  0
 10 11  1  0
 10 24  1  0
 11 12  1  0
 12 13  1  0
 13 25  1  6
 13 26  1  0
 13 14  1  0
 14 15  1  0
 14 27  1  6
 14 28  1  0
 15 16  1  0
 15 29  1  1
 15 30  1  0
 16 17  1  0
 17 20  2  0
 17 33  1  0
 18 19  2  0
 18 32  1  0
 18 43  1  0
 19 20  1  0
 19 42  1  0
 20 31  1  0
 32 33  2  0
 32 37  1  0
 33 34  1  0
 34 35  2  0
 34 38  1  0
 35 36  1  0
 35 39  1  0
 36 37  2  0
 36 40  1  0
 37 41  1  0
M  CHG  1   3  -1
M  END
