52
     RDKit          3D

 41 43  0  0  1  0  0  0  0  0999 V2000
    3.3287  -48.3970    6.5865 O   0  0  0  0  0  0  0  0  0  0  0  0
    2.8349  -49.5428    6.5841 C   0  0  0  0  0  0  0  0  0  0  0  0
    3.4595  -50.6082    6.8167 O   0  0  0  0  0  0  0  0  0  0  0  0
    1.3665  -49.6663    6.3502 C   0  0  0  0  0  0  0  0  0  0  0  0
   -0.5559  -50.8799    6.4091 C   0  0  0  0  0  0  0  0  0  0  0  0
   -1.5315  -51.8720    6.5653 C   0  0  0  0  0  0  0  0  0  0  0  0
   -2.8462  -51.5315    6.2436 C   0  0  0  0  0  0  0  0  0  0  0  0
   -3.1732  -50.2584    5.7855 C   0  0  0  0  0  0  0  0  0  0  0  0
   -2.2050  -49.2658    5.6254 C   0  0  0  0  0  0  0  0  0  0  0  0
   -0.8662  -49.5677    5.9360 C   0  0  0  0  0  0  0  0  0  0  0  0
    0.3547  -48.8103    5.8833 C   0  0  0  0  0  0  0  0  0  0  0  0
    0.4754  -47.3744    5.4151 C   0  0  2  0  0  0  0  0  0  0  0  0
    0.4435  -46.3817    6.5921 C   0  0  2  0  0  0  0  0  0  0  0  0
   -0.9280  -46.2602    7.2806 C   0  0  2  0  0  0  0  0  0  0  0  0
   -1.8633  -45.6944    6.3618 O   0  0  0  0  0  0  0  0  0  0  0  0
   -3.1648  -45.4749    6.7611 C   0  0  0  0  0  0  0  0  0  0  0  0
   -4.1354  -44.8125    5.9948 C   0  0  0  0  0  0  0  0  0  0  0  0
   -5.4405  -44.6479    6.4724 C   0  0  0  0  0  0  0  0  0  0  0  0
   -6.4395  -43.9108    5.5933 C   0  0  1  0  0  0  0  0  0  0  0  0
   -5.7823  -45.1602    7.7354 C   0  0  0  0  0  0  0  0  0  0  0  0
   -7.3788  -45.0183    8.3870 Cl  0  0  0  0  0  0  0  0  0  0  0  0
   -4.8145  -45.8075    8.5030 C   0  0  0  0  0  0  0  0  0  0  0  0
   -3.5161  -45.9567    8.0198 C   0  0  0  0  0  0  0  0  0  0  0  0
   -1.2951  -52.8615    6.9213 H   0  0  0  0  0  0  0  0  0  0  0  0
   -4.0955  -52.7148    6.4114 Cl  0  0  0  0  0  0  0  0  0  0  0  0
   -4.2054  -50.0350    5.5506 H   0  0  0  0  0  0  0  0  0  0  0  0
   -2.4730  -48.2804    5.2783 H   0  0  0  0  0  0  0  0  0  0  0  0
   -0.3115  -47.1205    4.7030 H   0  0  0  0  0  0  0  0  0  0  0  0
    1.4123  -47.2408    4.8666 H   0  0  0  0  0  0  0  0  0  0  0  0
    0.7490  -45.3937    6.2437 H   0  0  0  0  0  0  0  0  0  0  0  0
    1.1942  -46.6891    7.3205 H   0  0  0  0  0  0  0  0  0  0  0  0
   -0.8381  -45.6102    8.1540 H   0  0  0  0  0  0  0  0  0  0  0  0
   -1.2553  -47.2408    7.6340 H   0  0  0  0  0  0  0  0  0  0  0  0
   -3.8810  -44.4120    5.0258 H   0  0  0  0  0  0  0  0  0  0  0  0
   -7.4355  -43.8417    6.0271 H   0  0  0  0  0  0  0  0  0  0  0  0
   -6.0860  -42.8975    5.4027 H   0  0  0  0  0  0  0  0  0  0  0  0
   -6.5290  -44.4136    4.6306 H   0  0  0  0  0  0  0  0  0  0  0  0
   -2.7689  -46.4601    8.6142 H   0  0  0  0  0  0  0  0  0  0  0  0
   -5.0677  -46.1982    9.4754 H   0  0  0  0  0  0  0  0  0  0  0  0
    0.8095  -50.8992    6.6366 N   0  0  0  0  0  0  0  0  0  0  0  0
    1.4395  -51.6276    6.9598 H   0  0  0  0  0  0  0  0  0  0  0  0
  1  2  2  0
  2  3  1  0
  2  4  1  0
  4 11  2  0
  4 40  1  0
  5  6  1  0
  5 10  2  0
  5 40  1  0
  6  7  2  0
  6 24  1  0
  7  8  1  0
  7 25  1  0
  8  9  2  0
  8 26  1  0
  9 10  1  0
  9 27  1  0
 10 11  1  0
 11 12  1  0
 12 28  1  6
 12 29  1  0
 12 13  1  0
 13 14  1  0
 13 30  1  6
 13 31  1  0
 14 15  1  0
 14 32  1  1
 14 33  1  0
 15 16  1  0
 16 17  1  0
 16 23  2  0
 17 18  2  0
 17 34  1  0
 18 19  1  0
 18 20  1  0
 19 35  1  1
 19 36  1  0
 19 37  1  0
 20 21  1  0
 20 22  2  0
 22 23  1  0
 22 39  1  0
 23 38  1  0
 40 41  1  0
M  CHG  1   3  -1
M  END
