47 flip
     RDKit          3D

 43 46  0  0  1  0  0  0  0  0999 V2000
    3.3202  -48.3871    6.5861 O   0  0  0  0  0  0  0  0  0  0  0  0
    2.8353  -49.5382    6.5819 C   0  0  0  0  0  0  0  0  0  0  0  0
    3.4723  -50.6002    6.8061 O   0  0  0  0  0  0  0  0  0  0  0  0
    1.3660  -49.6681    6.3533 C   0  0  0  0  0  0  0  0  0  0  0  0
   -0.5521  -50.8887    6.4120 C   0  0  0  0  0  0  0  0  0  0  0  0
   -1.5218  -51.8881    6.5662 C   0  0  0  0  0  0  0  0  0  0  0  0
   -2.8393  -51.5499    6.2434 C   0  0  0  0  0  0  0  0  0  0  0  0
   -3.1748  -50.2774    5.7875 C   0  0  0  0  0  0  0  0  0  0  0  0
   -2.2092  -49.2825    5.6319 C   0  0  0  0  0  0  0  0  0  0  0  0
   -0.8688  -49.5775    5.9421 C   0  0  0  0  0  0  0  0  0  0  0  0
    0.3504  -48.8155    5.8889 C   0  0  0  0  0  0  0  0  0  0  0  0
    0.4666  -47.3786    5.4180 C   0  0  2  0  0  0  0  0  0  0  0  0
    0.4448  -46.3839    6.5939 C   0  0  2  0  0  0  0  0  0  0  0  0
   -0.9218  -46.2566    7.2931 C   0  0  2  0  0  0  0  0  0  0  0  0
   -1.8639  -45.7129    6.3659 O   0  0  0  0  0  0  0  0  0  0  0  0
   -3.1633  -45.4803    6.7623 C   0  0  0  0  0  0  0  0  0  0  0  0
   -5.4052  -44.5698    6.4917 C   0  0  0  0  0  0  0  0  0  0  0  0
   -4.1023  -44.7479    6.0231 C   0  0  0  0  0  0  0  0  0  0  0  0
   -1.2728  -52.8764    6.9210 H   0  0  0  0  0  0  0  0  0  0  0  0
   -3.6251  -52.2892    6.3443 H   0  0  0  0  0  0  0  0  0  0  0  0
   -4.2063  -50.0526    5.5501 H   0  0  0  0  0  0  0  0  0  0  0  0
   -2.4843  -48.2980    5.2874 H   0  0  0  0  0  0  0  0  0  0  0  0
   -0.3293  -47.1272    4.7155 H   0  0  0  0  0  0  0  0  0  0  0  0
    1.3944  -47.2436    4.8549 H   0  0  0  0  0  0  0  0  0  0  0  0
    0.7505  -45.3980    6.2389 H   0  0  0  0  0  0  0  0  0  0  0  0
    1.2017  -46.6886    7.3170 H   0  0  0  0  0  0  0  0  0  0  0  0
   -0.8269  -45.5882    8.1524 H   0  0  0  0  0  0  0  0  0  0  0  0
   -1.2411  -47.2317    7.6701 H   0  0  0  0  0  0  0  0  0  0  0  0
   -3.8277  -44.3003    5.0804 H   0  0  0  0  0  0  0  0  0  0  0  0
   -3.5293  -46.0260    7.9897 C   0  0  0  0  0  0  0  0  0  0  0  0
   -6.1296  -44.0042    5.9242 H   0  0  0  0  0  0  0  0  0  0  0  0
   -4.8413  -45.8721    8.4894 C   0  0  0  0  0  0  0  0  0  0  0  0
   -5.7954  -45.1336    7.7277 C   0  0  0  0  0  0  0  0  0  0  0  0
   -7.0752  -44.9551    8.1545 N   0  0  0  0  0  0  0  0  0  0  0  0
   -7.4389  -45.5015    9.3410 C   0  0  0  0  0  0  0  0  0  0  0  0
   -6.5737  -46.2375   10.1480 C   0  0  0  0  0  0  0  0  0  0  0  0
   -5.2585  -46.4275    9.7241 C   0  0  0  0  0  0  0  0  0  0  0  0
   -8.4633  -45.3337    9.6398 H   0  0  0  0  0  0  0  0  0  0  0  0
   -6.9185  -46.6518   11.0844 H   0  0  0  0  0  0  0  0  0  0  0  0
   -4.5571  -46.9913   10.3209 H   0  0  0  0  0  0  0  0  0  0  0  0
   -2.8003  -46.5810    8.5585 H   0  0  0  0  0  0  0  0  0  0  0  0
    0.8124  -50.9026    6.6389 N   0  0  0  0  0  0  0  0  0  0  0  0
    1.4383  -51.6369    6.9569 H   0  0  0  0  0  0  0  0  0  0  0  0
  1  2  2  0
  2  3  1  0
  2  4  1  0
  4 11  2  0
  4 42  1  0
  5  6  1  0
  5 10  2  0
  5 42  1  0
  6  7  2  0
  6 19  1  0
  7  8  1  0
  7 20  1  0
  8  9  2  0
  8 21  1  0
  9 10  1  0
  9 22  1  0
 10 11  1  0
 11 12  1  0
 12 23  1  6
 12 24  1  0
 12 13  1  0
 13 14  1  0
 13 25  1  6
 13 26  1  0
 14 15  1  0
 14 27  1  1
 14 28  1  0
 15 16  1  0
 16 18  2  0
 16 30  1  0
 17 18  1  0
 17 31  1  0
 17 33  2  0
 18 29  1  0
 30 32  2  0
 30 41  1  0
 32 33  1  0
 32 37  1  0
 33 34  1  0
 34 35  2  0
 35 36  1  0
 35 38  1  0
 36 37  2  0
 36 39  1  0
 37 40  1  0
 42 43  1  0
M  CHG  1   3  -1
M  END
