31
     RDKit          3D

 41 43  0  0  1  0  0  0  0  0999 V2000
    3.3260  -48.3928    6.5877 O   0  0  0  0  0  0  0  0  0  0  0  0
    2.8363  -49.5422    6.5836 C   0  0  0  0  0  0  0  0  0  0  0  0
    3.4701  -50.6056    6.8092 O   0  0  0  0  0  0  0  0  0  0  0  0
    1.3676  -49.6698    6.3532 C   0  0  0  0  0  0  0  0  0  0  0  0
   -0.5506  -50.8884    6.4112 C   0  0  0  0  0  0  0  0  0  0  0  0
   -1.5207  -51.8863    6.5662 C   0  0  0  0  0  0  0  0  0  0  0  0
   -2.8374  -51.5480    6.2419 C   0  0  0  0  0  0  0  0  0  0  0  0
   -3.1723  -50.2756    5.7852 C   0  0  0  0  0  0  0  0  0  0  0  0
   -2.2057  -49.2817    5.6289 C   0  0  0  0  0  0  0  0  0  0  0  0
   -0.8660  -49.5781    5.9397 C   0  0  0  0  0  0  0  0  0  0  0  0
    0.3533  -48.8170    5.8873 C   0  0  0  0  0  0  0  0  0  0  0  0
    0.4717  -47.3805    5.4173 C   0  0  2  0  0  0  0  0  0  0  0  0
    0.4449  -46.3889    6.5945 C   0  0  2  0  0  0  0  0  0  0  0  0
   -0.9226  -46.2721    7.2921 C   0  0  2  0  0  0  0  0  0  0  0  0
   -1.8588  -45.7044    6.3730 O   0  0  0  0  0  0  0  0  0  0  0  0
   -3.1602  -45.4809    6.7707 C   0  0  0  0  0  0  0  0  0  0  0  0
   -3.9539  -44.7325    5.9016 C   0  0  0  0  0  0  0  0  0  0  0  0
   -5.2827  -44.4201    6.2146 C   0  0  0  0  0  0  0  0  0  0  0  0
   -5.8213  -44.8890    7.4190 C   0  0  0  0  0  0  0  0  0  0  0  0
   -5.0459  -45.6533    8.2903 C   0  0  0  0  0  0  0  0  0  0  0  0
   -3.7202  -45.9468    7.9693 C   0  0  0  0  0  0  0  0  0  0  0  0
   -1.2704  -52.8742    6.9221 H   0  0  0  0  0  0  0  0  0  0  0  0
   -3.6209  -52.2892    6.3415 H   0  0  0  0  0  0  0  0  0  0  0  0
   -4.2026  -50.0508    5.5453 H   0  0  0  0  0  0  0  0  0  0  0  0
   -2.4785  -48.2973    5.2821 H   0  0  0  0  0  0  0  0  0  0  0  0
   -0.3166  -47.1268    4.7066 H   0  0  0  0  0  0  0  0  0  0  0  0
    1.4059  -47.2498    4.8647 H   0  0  0  0  0  0  0  0  0  0  0  0
    0.7453  -45.4003    6.2422 H   0  0  0  0  0  0  0  0  0  0  0  0
    1.2029  -46.6931    7.3168 H   0  0  0  0  0  0  0  0  0  0  0  0
   -0.8303  -45.6226    8.1658 H   0  0  0  0  0  0  0  0  0  0  0  0
   -1.2463  -47.2540    7.6477 H   0  0  0  0  0  0  0  0  0  0  0  0
   -3.5127  -44.3834    4.9792 H   0  0  0  0  0  0  0  0  0  0  0  0
   -3.1387  -46.5461    8.6532 H   0  0  0  0  0  0  0  0  0  0  0  0
    0.8130  -50.9034    6.6394 N   0  0  0  0  0  0  0  0  0  0  0  0
    1.4363  -51.6392    6.9598 H   0  0  0  0  0  0  0  0  0  0  0  0
   -5.4728  -46.0185    9.2123 H   0  0  0  0  0  0  0  0  0  0  0  0
   -6.8453  -44.6582    7.6758 H   0  0  0  0  0  0  0  0  0  0  0  0
   -7.0283  -42.8558    5.9343 F   0  0  0  0  0  0  0  0  0  0  0  0
   -6.1200  -43.5669    5.2644 C   0  0  1  0  0  0  0  0  0  0  0  0
   -5.3529  -42.7189    4.5764 F   0  0  0  0  0  0  0  0  0  0  0  0
   -6.7529  -44.3620    4.4030 F   0  0  0  0  0  0  0  0  0  0  0  0
  1  2  2  0
  2  3  1  0
  2  4  1  0
  4 11  2  0
  4 34  1  0
  5  6  1  0
  5 10  2  0
  5 34  1  0
  6  7  2  0
  6 22  1  0
  7  8  1  0
  7 23  1  0
  8  9  2  0
  8 24  1  0
  9 10  1  0
  9 25  1  0
 10 11  1  0
 11 12  1  0
 12 26  1  6
 12 27  1  0
 12 13  1  0
 13 14  1  0
 13 28  1  6
 13 29  1  0
 14 15  1  0
 14 30  1  1
 14 31  1  0
 15 16  1  0
 16 17  1  0
 16 21  2  0
 17 18  2  0
 17 32  1  0
 18 19  1  0
 18 39  1  0
 19 20  2  0
 19 37  1  0
 20 21  1  0
 20 36  1  0
 21 33  1  0
 34 35  1  0
 39 38  1  1
 39 40  1  0
 39 41  1  0
M  CHG  1   3  -1
M  END
