42 flip
     RDKit          3D

 44 47  0  0  1  0  0  0  0  0999 V2000
    3.3493  -48.4049    6.5724 O   0  0  0  0  0  0  0  0  0  0  0  0
    2.8423  -49.5455    6.5819 C   0  0  0  0  0  0  0  0  0  0  0  0
    3.4563  -50.6145    6.8363 O   0  0  0  0  0  0  0  0  0  0  0  0
    1.3724  -49.6600    6.3376 C   0  0  0  0  0  0  0  0  0  0  0  0
   -0.5526  -50.8736    6.4053 C   0  0  0  0  0  0  0  0  0  0  0  0
   -1.5192  -51.8745    6.5685 C   0  0  0  0  0  0  0  0  0  0  0  0
   -2.8371  -51.5409    6.2454 C   0  0  0  0  0  0  0  0  0  0  0  0
   -3.1729  -50.2699    5.7859 C   0  0  0  0  0  0  0  0  0  0  0  0
   -2.2081  -49.2743    5.6185 C   0  0  0  0  0  0  0  0  0  0  0  0
   -0.8640  -49.5668    5.9204 C   0  0  0  0  0  0  0  0  0  0  0  0
    0.3631  -48.8115    5.8471 C   0  0  0  0  0  0  0  0  0  0  0  0
    0.4898  -47.3826    5.3433 C   0  0  2  0  0  0  0  0  0  0  0  0
    0.4892  -46.3618    6.4980 C   0  0  2  0  0  0  0  0  0  0  0  0
   -0.8511  -46.2538    7.2503 C   0  0  2  0  0  0  0  0  0  0  0  0
   -1.8582  -45.6526    6.4486 O   0  0  0  0  0  0  0  0  0  0  0  0
   -3.1577  -45.4587    6.9008 C   0  0  0  0  0  0  0  0  0  0  0  0
   -5.8851  -44.8702    7.3608 C   0  0  0  0  0  0  0  0  0  0  0  0
   -5.2591  -44.4430    6.2002 C   0  0  0  0  0  0  0  0  0  0  0  0
   -3.9271  -44.7498    5.9755 C   0  0  0  0  0  0  0  0  0  0  0  0
   -1.2694  -52.8606    6.9294 H   0  0  0  0  0  0  0  0  0  0  0  0
   -3.6205  -52.2834    6.3517 H   0  0  0  0  0  0  0  0  0  0  0  0
   -4.2076  -50.0485    5.5555 H   0  0  0  0  0  0  0  0  0  0  0  0
   -2.4914  -48.2925    5.2717 H   0  0  0  0  0  0  0  0  0  0  0  0
   -0.3003  -47.1323    4.6342 H   0  0  0  0  0  0  0  0  0  0  0  0
    1.4203  -47.2728    4.7778 H   0  0  0  0  0  0  0  0  0  0  0  0
    0.7781  -45.3760    6.1262 H   0  0  0  0  0  0  0  0  0  0  0  0
    1.2683  -46.6577    7.2011 H   0  0  0  0  0  0  0  0  0  0  0  0
   -0.7061  -45.6503    8.1486 H   0  0  0  0  0  0  0  0  0  0  0  0
   -1.1546  -47.2642    7.5275 H   0  0  0  0  0  0  0  0  0  0  0  0
   -3.4674  -44.4310    5.0506 H   0  0  0  0  0  0  0  0  0  0  0  0
   -5.1751  -45.6081    8.3335 C   0  0  0  0  0  0  0  0  0  0  0  0
   -3.7789  -45.8927    8.1438 C   0  0  0  0  0  0  0  0  0  0  0  0
   -3.1373  -46.5960    9.2158 C   0  0  0  0  0  0  0  0  0  0  0  0
   -3.8329  -47.0277   10.3422 C   0  0  0  0  0  0  0  0  0  0  0  0
   -5.1900  -46.7787   10.4762 C   0  0  0  0  0  0  0  0  0  0  0  0
   -5.8602  -46.0632    9.4912 C   0  0  0  0  0  0  0  0  0  0  0  0
   -2.0941  -46.8334    9.2317 H   0  0  0  0  0  0  0  0  0  0  0  0
   -3.3021  -47.5649   11.1111 H   0  0  0  0  0  0  0  0  0  0  0  0
   -5.7191  -47.1345   11.3487 H   0  0  0  0  0  0  0  0  0  0  0  0
   -6.9166  -45.8572    9.6046 H   0  0  0  0  0  0  0  0  0  0  0  0
   -5.8090  -43.8851    5.4581 H   0  0  0  0  0  0  0  0  0  0  0  0
   -6.9265  -44.6434    7.5288 H   0  0  0  0  0  0  0  0  0  0  0  0
    0.8108  -50.8894    6.6374 N   0  0  0  0  0  0  0  0  0  0  0  0
    1.4322  -51.6219    6.9699 H   0  0  0  0  0  0  0  0  0  0  0  0
  1  2  2  0
  2  3  1  0
  2  4  1  0
  4 11  2  0
  4 43  1  0
  5  6  1  0
  5 10  2  0
  5 43  1  0
  6  7  2  0
  6 20  1  0
  7  8  1  0
  7 21  1  0
  8  9  2  0
  8 22  1  0
  9 10  1  0
  9 23  1  0
 10 11  1  0
 11 12  1  0
 12 24  1  6
 12 25  1  0
 12 13  1  0
 13 14  1  0
 13 26  1  6
 13 27  1  0
 14 15  1  0
 14 28  1  1
 14 29  1  0
 15 16  1  0
 16 19  2  0
 16 32  1  0
 17 18  2  0
 17 31  1  0
 17 42  1  0
 18 19  1  0
 18 41  1  0
 19 30  1  0
 31 32  2  0
 31 36  1  0
 32 33  1  0
 33 34  2  0
 33 37  1  0
 34 35  1  0
 34 38  1  0
 35 36  2  0
 35 39  1  0
 36 40  1  0
 43 44  1  0
M  CHG  1   3  -1
M  END
