30
     RDKit          3D

 41 43  0  0  1  0  0  0  0  0999 V2000
    3.3336  -48.3982    6.5806 O   0  0  0  0  0  0  0  0  0  0  0  0
    2.8364  -49.5441    6.5843 C   0  0  0  0  0  0  0  0  0  0  0  0
    3.4662  -50.6087    6.8167 O   0  0  0  0  0  0  0  0  0  0  0  0
    1.3665  -49.6678    6.3546 C   0  0  0  0  0  0  0  0  0  0  0  0
   -0.5530  -50.8859    6.4122 C   0  0  0  0  0  0  0  0  0  0  0  0
   -1.5226  -51.8850    6.5665 C   0  0  0  0  0  0  0  0  0  0  0  0
   -2.8397  -51.5480    6.2417 C   0  0  0  0  0  0  0  0  0  0  0  0
   -3.1748  -50.2756    5.7849 C   0  0  0  0  0  0  0  0  0  0  0  0
   -2.2087  -49.2806    5.6287 C   0  0  0  0  0  0  0  0  0  0  0  0
   -0.8682  -49.5754    5.9401 C   0  0  0  0  0  0  0  0  0  0  0  0
    0.3525  -48.8147    5.8869 C   0  0  0  0  0  0  0  0  0  0  0  0
    0.4717  -47.3783    5.4136 C   0  0  2  0  0  0  0  0  0  0  0  0
    0.4436  -46.3833    6.5874 C   0  0  2  0  0  0  0  0  0  0  0  0
   -0.9262  -46.2617    7.2765 C   0  0  2  0  0  0  0  0  0  0  0  0
   -1.8590  -45.6869    6.3596 O   0  0  0  0  0  0  0  0  0  0  0  0
   -3.1611  -45.4749    6.7615 C   0  0  0  0  0  0  0  0  0  0  0  0
   -4.1158  -44.7551    6.0258 C   0  0  0  0  0  0  0  0  0  0  0  0
   -5.4196  -44.6074    6.5048 C   0  0  0  0  0  0  0  0  0  0  0  0
   -5.7768  -45.1848    7.7250 C   0  0  0  0  0  0  0  0  0  0  0  0
   -4.8324  -45.8922    8.4675 C   0  0  0  0  0  0  0  0  0  0  0  0
   -3.5312  -46.0282    7.9868 C   0  0  0  0  0  0  0  0  0  0  0  0
   -1.2734  -52.8727    6.9230 H   0  0  0  0  0  0  0  0  0  0  0  0
   -3.6230  -52.2898    6.3416 H   0  0  0  0  0  0  0  0  0  0  0  0
   -4.2061  -50.0509    5.5465 H   0  0  0  0  0  0  0  0  0  0  0  0
   -2.4844  -48.2959    5.2845 H   0  0  0  0  0  0  0  0  0  0  0  0
   -0.3181  -47.1256    4.7044 H   0  0  0  0  0  0  0  0  0  0  0  0
    1.4054  -47.2454    4.8601 H   0  0  0  0  0  0  0  0  0  0  0  0
    0.7465  -45.3949    6.2369 H   0  0  0  0  0  0  0  0  0  0  0  0
    1.1956  -46.6888    7.3149 H   0  0  0  0  0  0  0  0  0  0  0  0
   -0.8363  -45.6168    8.1537 H   0  0  0  0  0  0  0  0  0  0  0  0
   -1.2563  -47.2447    7.6231 H   0  0  0  0  0  0  0  0  0  0  0  0
   -3.8529  -44.2970    5.0854 H   0  0  0  0  0  0  0  0  0  0  0  0
   -2.7929  -46.5733    8.5554 H   0  0  0  0  0  0  0  0  0  0  0  0
    0.8105  -50.9008    6.6418 N   0  0  0  0  0  0  0  0  0  0  0  0
    1.4337  -51.6357    6.9646 H   0  0  0  0  0  0  0  0  0  0  0  0
   -5.1031  -46.3354    9.4126 H   0  0  0  0  0  0  0  0  0  0  0  0
   -6.7823  -45.0829    8.1044 H   0  0  0  0  0  0  0  0  0  0  0  0
   -6.4317  -43.8201    5.6978 C   0  0  1  0  0  0  0  0  0  0  0  0
   -7.4131  -43.8018    6.1727 H   0  0  0  0  0  0  0  0  0  0  0  0
   -6.0891  -42.7928    5.5707 H   0  0  0  0  0  0  0  0  0  0  0  0
   -6.5381  -44.2553    4.7040 H   0  0  0  0  0  0  0  0  0  0  0  0
  1  2  2  0
  2  3  1  0
  2  4  1  0
  4 11  2  0
  4 34  1  0
  5  6  1  0
  5 10  2  0
  5 34  1  0
  6  7  2  0
  6 22  1  0
  7  8  1  0
  7 23  1  0
  8  9  2  0
  8 24  1  0
  9 10  1  0
  9 25  1  0
 10 11  1  0
 11 12  1  0
 12 26  1  6
 12 27  1  0
 12 13  1  0
 13 14  1  0
 13 28  1  6
 13 29  1  0
 14 15  1  0
 14 30  1  1
 14 31  1  0
 15 16  1  0
 16 17  1  0
 16 21  2  0
 17 18  2  0
 17 32  1  0
 18 19  1  0
 18 38  1  0
 19 20  2  0
 19 37  1  0
 20 21  1  0
 20 36  1  0
 21 33  1  0
 34 35  1  0
 38 39  1  1
 38 40  1  0
 38 41  1  0
M  CHG  1   3  -1
M  END
