49 flip
     RDKit          3D

 41 43  0  0  1  0  0  0  0  0999 V2000
    3.2882  -48.3838    6.5890 O   0  0  0  0  0  0  0  0  0  0  0  0
    2.7977  -49.5315    6.5856 C   0  0  0  0  0  0  0  0  0  0  0  0
    3.4275  -50.6005    6.8061 O   0  0  0  0  0  0  0  0  0  0  0  0
    1.3311  -49.6554    6.3479 C   0  0  0  0  0  0  0  0  0  0  0  0
   -0.5716  -50.8911    6.4074 C   0  0  0  0  0  0  0  0  0  0  0  0
   -1.5121  -51.9101    6.5989 C   0  0  0  0  0  0  0  0  0  0  0  0
   -2.8370  -51.6159    6.2843 C   0  0  0  0  0  0  0  0  0  0  0  0
   -3.1985  -50.3836    5.7498 C   0  0  0  0  0  0  0  0  0  0  0  0
   -2.2573  -49.3795    5.5112 C   0  0  0  0  0  0  0  0  0  0  0  0
   -0.9064  -49.5984    5.8824 C   0  0  0  0  0  0  0  0  0  0  0  0
    0.3153  -48.8057    5.8681 C   0  0  0  0  0  0  0  0  0  0  0  0
    0.4768  -47.3560    5.4229 C   0  0  2  0  0  0  0  0  0  0  0  0
    0.4583  -46.3692    6.6107 C   0  0  2  0  0  0  0  0  0  0  0  0
   -0.9047  -46.2168    7.3093 C   0  0  2  0  0  0  0  0  0  0  0  0
   -1.8095  -45.5295    6.4458 O   0  0  0  0  0  0  0  0  0  0  0  0
   -3.1313  -45.3765    6.8153 C   0  0  0  0  0  0  0  0  0  0  0  0
   -3.7017  -45.8817    7.9941 C   0  0  0  0  0  0  0  0  0  0  0  0
   -5.0466  -45.6449    8.3034 C   0  0  0  0  0  0  0  0  0  0  0  0
   -5.5985  -46.2115    9.6033 C   0  0  1  0  0  0  0  0  0  0  0  0
   -5.8358  -44.8924    7.4173 C   0  0  0  0  0  0  0  0  0  0  0  0
   -7.4918  -44.5154    7.7523 Cl  0  0  0  0  0  0  0  0  0  0  0  0
   -5.2798  -44.4187    6.2292 C   0  0  0  0  0  0  0  0  0  0  0  0
   -3.9393  -44.6605    5.9347 C   0  0  0  0  0  0  0  0  0  0  0  0
   -1.2277  -52.8746    6.9949 H   0  0  0  0  0  0  0  0  0  0  0  0
   -3.6010  -52.3676    6.4443 H   0  0  0  0  0  0  0  0  0  0  0  0
   -4.2321  -50.1889    5.4980 H   0  0  0  0  0  0  0  0  0  0  0  0
   -2.7975  -47.9300    4.7462 Cl  0  0  0  0  0  0  0  0  0  0  0  0
   -0.2611  -47.0496    4.6791 H   0  0  0  0  0  0  0  0  0  0  0  0
    1.4420  -47.2460    4.9196 H   0  0  0  0  0  0  0  0  0  0  0  0
    0.7920  -45.3869    6.2700 H   0  0  0  0  0  0  0  0  0  0  0  0
    1.2002  -46.6940    7.3397 H   0  0  0  0  0  0  0  0  0  0  0  0
   -0.7803  -45.6315    8.2225 H   0  0  0  0  0  0  0  0  0  0  0  0
   -1.2793  -47.2014    7.5987 H   0  0  0  0  0  0  0  0  0  0  0  0
   -3.1046  -46.4624    8.6787 H   0  0  0  0  0  0  0  0  0  0  0  0
   -6.6328  -45.9309    9.7957 H   0  0  0  0  0  0  0  0  0  0  0  0
   -5.5427  -47.2998    9.5855 H   0  0  0  0  0  0  0  0  0  0  0  0
   -5.0000  -45.8644   10.4458 H   0  0  0  0  0  0  0  0  0  0  0  0
   -3.5081  -44.2927    5.0164 H   0  0  0  0  0  0  0  0  0  0  0  0
   -5.8857  -43.8556    5.5372 H   0  0  0  0  0  0  0  0  0  0  0  0
    0.7885  -50.8885    6.6426 N   0  0  0  0  0  0  0  0  0  0  0  0
    1.4242  -51.6087    6.9742 H   0  0  0  0  0  0  0  0  0  0  0  0
  1  2  2  0
  2  3  1  0
  2  4  1  0
  4 11  2  0
  4 40  1  0
  5  6  1  0
  5 10  2  0
  5 40  1  0
  6  7  2  0
  6 24  1  0
  7  8  1  0
  7 25  1  0
  8  9  2  0
  8 26  1  0
  9 10  1  0
  9 27  1  0
 10 11  1  0
 11 12  1  0
 12 28  1  6
 12 29  1  0
 12 13  1  0
 13 14  1  0
 13 30  1  6
 13 31  1  0
 14 15  1  0
 14 32  1  1
 14 33  1  0
 15 16  1  0
 16 17  1  0
 16 23  2  0
 17 18  2  0
 17 34  1  0
 18 19  1  0
 18 20  1  0
 19 35  1  1
 19 36  1  0
 19 37  1  0
 20 21  1  0
 20 22  2  0
 22 23  1  0
 22 39  1  0
 23 38  1  0
 40 41  1  0
M  CHG  1   3  -1
M  END
