66
     RDKit          3D

 43 46  0  0  1  0  0  0  0  0999 V2000
    3.2311  -48.0861    6.5004 O   0  0  0  0  0  0  0  0  0  0  0  0
    2.9244  -49.2959    6.5176 C   0  0  0  0  0  0  0  0  0  0  0  0
    3.7577  -50.2285    6.6529 O   0  0  0  0  0  0  0  0  0  0  0  0
    1.4868  -49.6610    6.3700 C   0  0  0  0  0  0  0  0  0  0  0  0
    1.0425  -51.3061    6.8083 S   0  0  0  0  0  0  0  0  0  0  0  0
   -0.6392  -51.0043    6.4406 C   0  0  0  0  0  0  0  0  0  0  0  0
   -1.7063  -51.9069    6.5536 C   0  0  0  0  0  0  0  0  0  0  0  0
   -2.9737  -51.4725    6.1959 C   0  0  0  0  0  0  0  0  0  0  0  0
   -3.1972  -50.1799    5.7496 C   0  0  0  0  0  0  0  0  0  0  0  0
   -2.1409  -49.2800    5.6435 C   0  0  0  0  0  0  0  0  0  0  0  0
   -0.8315  -49.6711    5.9787 C   0  0  0  0  0  0  0  0  0  0  0  0
    0.3823  -48.9034    5.9254 C   0  0  0  0  0  0  0  0  0  0  0  0
    0.4333  -47.4570    5.4161 C   0  0  2  0  0  0  0  0  0  0  0  0
    0.4666  -46.4103    6.5407 C   0  0  2  0  0  0  0  0  0  0  0  0
   -0.8840  -46.2488    7.2231 C   0  0  2  0  0  0  0  0  0  0  0  0
   -1.8817  -45.6868    6.3885 O   0  0  0  0  0  0  0  0  0  0  0  0
   -3.1683  -45.4738    6.8642 C   0  0  0  0  0  0  0  0  0  0  0  0
   -5.6141  -45.2254    8.2759 C   0  0  0  0  0  0  0  0  0  0  0  0
   -4.5461  -45.9159    8.8251 C   0  0  0  0  0  0  0  0  0  0  0  0
   -3.3474  -46.0090    8.1343 C   0  0  0  0  0  0  0  0  0  0  0  0
   -1.4941  -53.5270    7.1165 Cl  0  0  0  0  0  0  0  0  0  0  0  0
   -3.7958  -52.1670    6.2771 H   0  0  0  0  0  0  0  0  0  0  0  0
   -4.2014  -49.8787    5.4847 H   0  0  0  0  0  0  0  0  0  0  0  0
   -2.3239  -48.2724    5.3097 H   0  0  0  0  0  0  0  0  0  0  0  0
   -0.3921  -47.2252    4.7404 H   0  0  0  0  0  0  0  0  0  0  0  0
    1.3262  -47.3212    4.8056 H   0  0  0  0  0  0  0  0  0  0  0  0
    0.8115  -45.4448    6.1749 H   0  0  0  0  0  0  0  0  0  0  0  0
    1.2024  -46.7113    7.2925 H   0  0  0  0  0  0  0  0  0  0  0  0
   -0.7458  -45.6008    8.0953 H   0  0  0  0  0  0  0  0  0  0  0  0
   -1.1809  -47.2618    7.5059 H   0  0  0  0  0  0  0  0  0  0  0  0
   -2.5141  -46.5159    8.5808 H   0  0  0  0  0  0  0  0  0  0  0  0
   -5.5073  -44.6269    6.9949 C   0  0  0  0  0  0  0  0  0  0  0  0
   -4.2878  -44.7792    6.2385 C   0  0  0  0  0  0  0  0  0  0  0  0
   -4.2983  -44.2179    4.9163 C   0  0  0  0  0  0  0  0  0  0  0  0
   -5.3825  -43.4910    4.4331 C   0  0  0  0  0  0  0  0  0  0  0  0
   -6.5157  -43.3098    5.2066 C   0  0  0  0  0  0  0  0  0  0  0  0
   -6.5914  -43.8886    6.4650 C   0  0  0  0  0  0  0  0  0  0  0  0
   -3.4968  -44.3146    4.2147 H   0  0  0  0  0  0  0  0  0  0  0  0
   -5.3364  -43.0520    3.4469 H   0  0  0  0  0  0  0  0  0  0  0  0
   -7.3430  -42.7392    4.8197 H   0  0  0  0  0  0  0  0  0  0  0  0
   -7.4819  -43.7763    7.0587 H   0  0  0  0  0  0  0  0  0  0  0  0
   -4.6396  -46.3848    9.7977 H   0  0  0  0  0  0  0  0  0  0  0  0
   -6.5329  -45.1570    8.8370 H   0  0  0  0  0  0  0  0  0  0  0  0
  1  2  2  0
  2  3  1  0
  2  4  1  0
  4  5  1  0
  4 12  2  0
  5  6  1  0
  6  7  1  0
  6 11  2  0
  7  8  2  0
  7 21  1  0
  8  9  1  0
  8 22  1  0
  9 10  2  0
  9 23  1  0
 10 11  1  0
 10 24  1  0
 11 12  1  0
 12 13  1  0
 13 25  1  6
 13 26  1  0
 13 14  1  0
 14 15  1  0
 14 27  1  6
 14 28  1  0
 15 16  1  0
 15 29  1  1
 15 30  1  0
 16 17  1  0
 17 20  2  0
 17 33  1  0
 18 19  2  0
 18 32  1  0
 18 43  1  0
 19 20  1  0
 19 42  1  0
 20 31  1  0
 32 33  2  0
 32 37  1  0
 33 34  1  0
 34 35  2  0
 34 38  1  0
 35 36  1  0
 35 39  1  0
 36 37  2  0
 36 40  1  0
 37 41  1  0
M  CHG  1   3  -1
M  END
