57 flip
     RDKit          3D

 47 50  0  0  1  0  0  0  0  0999 V2000
    3.2994  -48.2902    6.5523 O   0  0  0  0  0  0  0  0  0  0  0  0
    2.9006  -49.4770    6.5828 C   0  0  0  0  0  0  0  0  0  0  0  0
    3.6667  -50.4506    6.7837 O   0  0  0  0  0  0  0  0  0  0  0  0
    1.4271  -49.7305    6.3769 C   0  0  0  0  0  0  0  0  0  0  0  0
   -0.5135  -50.9358    6.4294 C   0  0  0  0  0  0  0  0  0  0  0  0
   -1.5118  -51.9126    6.5776 C   0  0  0  0  0  0  0  0  0  0  0  0
   -2.8211  -51.5601    6.2520 C   0  0  0  0  0  0  0  0  0  0  0  0
   -3.1428  -50.2865    5.7977 C   0  0  0  0  0  0  0  0  0  0  0  0
   -2.1558  -49.3107    5.6467 C   0  0  0  0  0  0  0  0  0  0  0  0
   -0.8175  -49.6283    5.9543 C   0  0  0  0  0  0  0  0  0  0  0  0
    0.4055  -48.8841    5.8936 C   0  0  0  0  0  0  0  0  0  0  0  0
    0.5157  -47.4548    5.3795 C   0  0  2  0  0  0  0  0  0  0  0  0
    0.4957  -46.4107    6.5134 C   0  0  2  0  0  0  0  0  0  0  0  0
   -0.8493  -46.2832    7.2497 C   0  0  2  0  0  0  0  0  0  0  0  0
   -1.8498  -45.6736    6.4520 O   0  0  0  0  0  0  0  0  0  0  0  0
   -3.1489  -45.4681    6.9035 C   0  0  0  0  0  0  0  0  0  0  0  0
   -5.8796  -44.8719    7.3604 C   0  0  0  0  0  0  0  0  0  0  0  0
   -5.2511  -44.4454    6.2010 C   0  0  0  0  0  0  0  0  0  0  0  0
   -3.9176  -44.7557    5.9788 C   0  0  0  0  0  0  0  0  0  0  0  0
   -1.2958  -52.9033    6.9302 H   0  0  0  0  0  0  0  0  0  0  0  0
   -3.6080  -52.2934    6.3544 H   0  0  0  0  0  0  0  0  0  0  0  0
   -4.1741  -50.0500    5.5603 H   0  0  0  0  0  0  0  0  0  0  0  0
   -2.4162  -48.3191    5.3010 H   0  0  0  0  0  0  0  0  0  0  0  0
   -0.2788  -47.2300    4.6649 H   0  0  0  0  0  0  0  0  0  0  0  0
    1.4423  -47.3459    4.8110 H   0  0  0  0  0  0  0  0  0  0  0  0
    0.7964  -45.4396    6.1179 H   0  0  0  0  0  0  0  0  0  0  0  0
    1.2703  -46.6842    7.2338 H   0  0  0  0  0  0  0  0  0  0  0  0
   -0.6990  -45.6777    8.1419 H   0  0  0  0  0  0  0  0  0  0  0  0
   -1.1604  -47.2864    7.5240 H   0  0  0  0  0  0  0  0  0  0  0  0
   -3.4537  -44.4398    5.0546 H   0  0  0  0  0  0  0  0  0  0  0  0
   -5.1694  -45.6095    8.3334 C   0  0  0  0  0  0  0  0  0  0  0  0
   -3.7733  -45.8979    8.1455 C   0  0  0  0  0  0  0  0  0  0  0  0
   -3.1349  -46.6024    9.2176 C   0  0  0  0  0  0  0  0  0  0  0  0
   -3.8309  -47.0360   10.3407 C   0  0  0  0  0  0  0  0  0  0  0  0
   -5.1867  -46.7836   10.4741 C   0  0  0  0  0  0  0  0  0  0  0  0
   -5.8567  -46.0645    9.4912 C   0  0  0  0  0  0  0  0  0  0  0  0
   -2.0943  -46.8440    9.2328 H   0  0  0  0  0  0  0  0  0  0  0  0
   -3.3028  -47.5786   11.1091 H   0  0  0  0  0  0  0  0  0  0  0  0
   -5.7139  -47.1432   11.3467 H   0  0  0  0  0  0  0  0  0  0  0  0
   -6.9141  -45.8583    9.6075 H   0  0  0  0  0  0  0  0  0  0  0  0
   -5.8023  -43.8855    5.4597 H   0  0  0  0  0  0  0  0  0  0  0  0
   -6.9223  -44.6435    7.5258 H   0  0  0  0  0  0  0  0  0  0  0  0
    1.5403  -52.1953    7.1685 C   0  0  1  0  0  0  0  0  0  0  0  0
    0.8380  -53.0036    7.3298 H   0  0  0  0  0  0  0  0  0  0  0  0
    2.2824  -52.5107    6.4344 H   0  0  0  0  0  0  0  0  0  0  0  0
    2.0387  -51.9605    8.1088 H   0  0  0  0  0  0  0  0  0  0  0  0
    0.8603  -50.9888    6.6728 N   0  0  0  0  0  0  0  0  0  0  0  0
  1  2  2  0
  2  3  1  0
  2  4  1  0
  4 11  2  0
  4 47  1  0
  5  6  1  0
  5 10  2  0
  5 47  1  0
  6  7  2  0
  6 20  1  0
  7  8  1  0
  7 21  1  0
  8  9  2  0
  8 22  1  0
  9 10  1  0
  9 23  1  0
 10 11  1  0
 11 12  1  0
 12 24  1  6
 12 25  1  0
 12 13  1  0
 13 14  1  0
 13 26  1  6
 13 27  1  0
 14 15  1  0
 14 28  1  1
 14 29  1  0
 15 16  1  0
 16 19  2  0
 16 32  1  0
 17 18  2  0
 17 31  1  0
 17 42  1  0
 18 19  1  0
 18 41  1  0
 19 30  1  0
 31 32  2  0
 31 36  1  0
 32 33  1  0
 33 34  2  0
 33 37  1  0
 34 35  1  0
 34 38  1  0
 35 36  2  0
 35 39  1  0
 36 40  1  0
 43 44  1  1
 43 45  1  0
 43 46  1  0
 43 47  1  0
M  CHG  1   3  -1
M  END
