36 flip
     RDKit          3D

 44 46  0  0  1  0  0  0  0  0999 V2000
    3.3182  -48.3848    6.5863 O   0  0  0  0  0  0  0  0  0  0  0  0
    2.8352  -49.5370    6.5803 C   0  0  0  0  0  0  0  0  0  0  0  0
    3.4721  -50.5988    6.8039 O   0  0  0  0  0  0  0  0  0  0  0  0
    1.3671  -49.6699    6.3504 C   0  0  0  0  0  0  0  0  0  0  0  0
   -0.5510  -50.8907    6.4083 C   0  0  0  0  0  0  0  0  0  0  0  0
   -1.5216  -51.8893    6.5629 C   0  0  0  0  0  0  0  0  0  0  0  0
   -2.8388  -51.5494    6.2399 C   0  0  0  0  0  0  0  0  0  0  0  0
   -3.1729  -50.2761    5.7849 C   0  0  0  0  0  0  0  0  0  0  0  0
   -2.2065  -49.2820    5.6294 C   0  0  0  0  0  0  0  0  0  0  0  0
   -0.8669  -49.5797    5.9386 C   0  0  0  0  0  0  0  0  0  0  0  0
    0.3521  -48.8189    5.8860 C   0  0  0  0  0  0  0  0  0  0  0  0
    0.4678  -47.3813    5.4209 C   0  0  2  0  0  0  0  0  0  0  0  0
    0.4468  -46.3945    6.6035 C   0  0  2  0  0  0  0  0  0  0  0  0
   -0.9105  -46.2956    7.3264 C   0  0  2  0  0  0  0  0  0  0  0  0
   -1.8538  -45.7392    6.4128 O   0  0  0  0  0  0  0  0  0  0  0  0
   -3.1522  -45.5116    6.8099 C   0  0  0  0  0  0  0  0  0  0  0  0
   -3.5103  -46.0598    8.0372 C   0  0  0  0  0  0  0  0  0  0  0  0
   -4.8059  -45.9296    8.5505 C   0  0  0  0  0  0  0  0  0  0  0  0
   -5.7566  -45.2086    7.8074 C   0  0  0  0  0  0  0  0  0  0  0  0
   -5.4007  -44.6395    6.5820 C   0  0  0  0  0  0  0  0  0  0  0  0
   -4.1064  -44.7909    6.0809 C   0  0  0  0  0  0  0  0  0  0  0  0
   -1.2734  -52.8781    6.9181 H   0  0  0  0  0  0  0  0  0  0  0  0
   -3.6237  -52.2892    6.3399 H   0  0  0  0  0  0  0  0  0  0  0  0
   -4.2040  -50.0490    5.5470 H   0  0  0  0  0  0  0  0  0  0  0  0
   -2.4789  -48.2970    5.2858 H   0  0  0  0  0  0  0  0  0  0  0  0
   -0.3238  -47.1273    4.7135 H   0  0  0  0  0  0  0  0  0  0  0  0
    1.3990  -47.2468    4.8638 H   0  0  0  0  0  0  0  0  0  0  0  0
    0.7228  -45.4003    6.2453 H   0  0  0  0  0  0  0  0  0  0  0  0
    1.2239  -46.6858    7.3107 H   0  0  0  0  0  0  0  0  0  0  0  0
   -0.8130  -45.6415    8.1962 H   0  0  0  0  0  0  0  0  0  0  0  0
   -1.2251  -47.2789    7.6884 H   0  0  0  0  0  0  0  0  0  0  0  0
   -2.7496  -46.6043    8.5742 H   0  0  0  0  0  0  0  0  0  0  0  0
   -3.8504  -44.3383    5.1346 H   0  0  0  0  0  0  0  0  0  0  0  0
    0.8136  -50.9047    6.6362 N   0  0  0  0  0  0  0  0  0  0  0  0
    1.4383  -51.6396    6.9552 H   0  0  0  0  0  0  0  0  0  0  0  0
   -6.1321  -44.0800    6.0199 H   0  0  0  0  0  0  0  0  0  0  0  0
   -7.3787  -45.0069    8.3792 Cl  0  0  0  0  0  0  0  0  0  0  0  0
   -5.1812  -46.5650    9.8901 C   0  0  1  0  0  0  0  0  0  0  0  0
   -4.7354  -45.9629   10.6821 H   0  0  0  0  0  0  0  0  0  0  0  0
   -6.2628  -46.4876   10.0052 H   0  0  0  0  0  0  0  0  0  0  0  0
   -4.7659  -48.0346   10.0878 C   0  0  1  0  0  0  0  0  0  0  0  0
   -5.0802  -48.3896   11.0707 H   0  0  0  0  0  0  0  0  0  0  0  0
   -5.2243  -48.6845    9.3411 H   0  0  0  0  0  0  0  0  0  0  0  0
   -3.6836  -48.1563   10.0240 H   0  0  0  0  0  0  0  0  0  0  0  0
  1  2  2  0
  2  3  1  0
  2  4  1  0
  4 11  2  0
  4 34  1  0
  5  6  1  0
  5 10  2  0
  5 34  1  0
  6  7  2  0
  6 22  1  0
  7  8  1  0
  7 23  1  0
  8  9  2  0
  8 24  1  0
  9 10  1  0
  9 25  1  0
 10 11  1  0
 11 12  1  0
 12 26  1  6
 12 27  1  0
 12 13  1  0
 13 14  1  0
 13 28  1  6
 13 29  1  0
 14 15  1  0
 14 30  1  1
 14 31  1  0
 15 16  1  0
 16 17  1  0
 16 21  2  0
 17 18  2  0
 17 32  1  0
 18 19  1  0
 18 38  1  0
 19 20  2  0
 19 37  1  0
 20 21  1  0
 20 36  1  0
 21 33  1  0
 34 35  1  0
 38 39  1  1
 38 40  1  0
 38 41  1  0
 41 42  1  1
 41 43  1  0
 41 44  1  0
M  CHG  1   3  -1
M  END
