38 flip
     RDKit          3D

 48 51  0  0  1  0  0  0  0  0999 V2000
    3.3280  -48.3913    6.5806 O   0  0  0  0  0  0  0  0  0  0  0  0
    2.8345  -49.5386    6.5830 C   0  0  0  0  0  0  0  0  0  0  0  0
    3.4648  -50.6022    6.8185 O   0  0  0  0  0  0  0  0  0  0  0  0
    1.3654  -49.6645    6.3498 C   0  0  0  0  0  0  0  0  0  0  0  0
   -0.5525  -50.8853    6.4095 C   0  0  0  0  0  0  0  0  0  0  0  0
   -1.5209  -51.8854    6.5645 C   0  0  0  0  0  0  0  0  0  0  0  0
   -2.8388  -51.5487    6.2420 C   0  0  0  0  0  0  0  0  0  0  0  0
   -3.1763  -50.2760    5.7885 C   0  0  0  0  0  0  0  0  0  0  0  0
   -2.2112  -49.2806    5.6316 C   0  0  0  0  0  0  0  0  0  0  0  0
   -0.8696  -49.5750    5.9386 C   0  0  0  0  0  0  0  0  0  0  0  0
    0.3504  -48.8137    5.8813 C   0  0  0  0  0  0  0  0  0  0  0  0
    0.4651  -47.3785    5.4053 C   0  0  2  0  0  0  0  0  0  0  0  0
    0.4304  -46.3801    6.5762 C   0  0  2  0  0  0  0  0  0  0  0  0
   -0.9349  -46.2708    7.2781 C   0  0  2  0  0  0  0  0  0  0  0  0
   -1.8660  -45.6891    6.3658 O   0  0  0  0  0  0  0  0  0  0  0  0
   -3.1687  -45.4696    6.7629 C   0  0  0  0  0  0  0  0  0  0  0  0
   -4.1274  -44.7566    6.0250 C   0  0  0  0  0  0  0  0  0  0  0  0
   -5.4403  -44.5869    6.4956 C   0  0  0  0  0  0  0  0  0  0  0  0
   -5.7710  -45.1584    7.7334 C   0  0  0  0  0  0  0  0  0  0  0  0
   -4.8290  -45.8680    8.4765 C   0  0  0  0  0  0  0  0  0  0  0  0
   -3.5335  -46.0141    7.9905 C   0  0  0  0  0  0  0  0  0  0  0  0
   -1.2695  -52.8738    6.9188 H   0  0  0  0  0  0  0  0  0  0  0  0
   -3.6215  -52.2913    6.3396 H   0  0  0  0  0  0  0  0  0  0  0  0
   -4.2079  -50.0518    5.5507 H   0  0  0  0  0  0  0  0  0  0  0  0
   -2.4870  -48.2961    5.2881 H   0  0  0  0  0  0  0  0  0  0  0  0
   -0.3237  -47.1319    4.6929 H   0  0  0  0  0  0  0  0  0  0  0  0
    1.3980  -47.2442    4.8510 H   0  0  0  0  0  0  0  0  0  0  0  0
    0.7114  -45.3910    6.2108 H   0  0  0  0  0  0  0  0  0  0  0  0
    1.1972  -46.6643    7.2965 H   0  0  0  0  0  0  0  0  0  0  0  0
   -0.8422  -45.6315    8.1598 H   0  0  0  0  0  0  0  0  0  0  0  0
   -1.2641  -47.2573    7.6174 H   0  0  0  0  0  0  0  0  0  0  0  0
   -3.8542  -44.3343    5.0713 H   0  0  0  0  0  0  0  0  0  0  0  0
   -2.7936  -46.5609    8.5547 H   0  0  0  0  0  0  0  0  0  0  0  0
    0.8116  -50.8983    6.6377 N   0  0  0  0  0  0  0  0  0  0  0  0
    1.4378  -51.6312    6.9590 H   0  0  0  0  0  0  0  0  0  0  0  0
   -5.0955  -46.3032    9.4263 H   0  0  0  0  0  0  0  0  0  0  0  0
   -6.7643  -45.0455    8.1400 H   0  0  0  0  0  0  0  0  0  0  0  0
   -8.3600  -42.4145    4.2018 C   0  0  0  0  0  0  0  0  0  0  0  0
   -7.0160  -42.0595    4.1249 C   0  0  0  0  0  0  0  0  0  0  0  0
   -6.0726  -42.7589    4.8751 C   0  0  0  0  0  0  0  0  0  0  0  0
   -6.4566  -43.8255    5.7032 C   0  0  0  0  0  0  0  0  0  0  0  0
   -7.8183  -44.1624    5.7674 C   0  0  0  0  0  0  0  0  0  0  0  0
   -8.7664  -43.4618    5.0240 C   0  0  0  0  0  0  0  0  0  0  0  0
   -9.0928  -41.8725    3.6197 H   0  0  0  0  0  0  0  0  0  0  0  0
   -6.7060  -41.2434    3.4897 H   0  0  0  0  0  0  0  0  0  0  0  0
   -5.0361  -42.4572    4.8140 H   0  0  0  0  0  0  0  0  0  0  0  0
   -8.1494  -44.9838    6.3861 H   0  0  0  0  0  0  0  0  0  0  0  0
   -9.8101  -43.7342    5.0824 H   0  0  0  0  0  0  0  0  0  0  0  0
  1  2  2  0
  2  3  1  0
  2  4  1  0
  4 11  2  0
  4 34  1  0
  5  6  1  0
  5 10  2  0
  5 34  1  0
  6  7  2  0
  6 22  1  0
  7  8  1  0
  7 23  1  0
  8  9  2  0
  8 24  1  0
  9 10  1  0
  9 25  1  0
 10 11  1  0
 11 12  1  0
 12 26  1  6
 12 27  1  0
 12 13  1  0
 13 14  1  0
 13 28  1  6
 13 29  1  0
 14 15  1  0
 14 30  1  1
 14 31  1  0
 15 16  1  0
 16 17  1  0
 16 21  2  0
 17 18  2  0
 17 32  1  0
 18 19  1  0
 18 41  1  0
 19 20  2  0
 19 37  1  0
 20 21  1  0
 20 36  1  0
 21 33  1  0
 34 35  1  0
 38 39  2  0
 38 43  1  0
 38 44  1  0
 39 40  1  0
 39 45  1  0
 40 41  2  0
 40 46  1  0
 41 42  1  0
 42 43  2  0
 42 47  1  0
 43 48  1  0
M  CHG  1   3  -1
M  END
