66 flip
     RDKit          3D

 43 46  0  0  1  0  0  0  0  0999 V2000
    3.2311  -48.0861    6.5004 O   0  0  0  0  0  0  0  0  0  0  0  0
    2.9244  -49.2959    6.5176 C   0  0  0  0  0  0  0  0  0  0  0  0
    3.7577  -50.2285    6.6529 O   0  0  0  0  0  0  0  0  0  0  0  0
    1.4868  -49.6610    6.3700 C   0  0  0  0  0  0  0  0  0  0  0  0
    1.0425  -51.3061    6.8083 S   0  0  0  0  0  0  0  0  0  0  0  0
   -0.6392  -51.0043    6.4406 C   0  0  0  0  0  0  0  0  0  0  0  0
   -1.7063  -51.9069    6.5536 C   0  0  0  0  0  0  0  0  0  0  0  0
   -2.9737  -51.4725    6.1959 C   0  0  0  0  0  0  0  0  0  0  0  0
   -3.1972  -50.1799    5.7496 C   0  0  0  0  0  0  0  0  0  0  0  0
   -2.1409  -49.2800    5.6435 C   0  0  0  0  0  0  0  0  0  0  0  0
   -0.8315  -49.6711    5.9787 C   0  0  0  0  0  0  0  0  0  0  0  0
    0.3823  -48.9034    5.9254 C   0  0  0  0  0  0  0  0  0  0  0  0
    0.4333  -47.4570    5.4161 C   0  0  2  0  0  0  0  0  0  0  0  0
    0.4666  -46.4103    6.5407 C   0  0  2  0  0  0  0  0  0  0  0  0
   -0.8840  -46.2488    7.2231 C   0  0  2  0  0  0  0  0  0  0  0  0
   -1.8817  -45.6868    6.3885 O   0  0  0  0  0  0  0  0  0  0  0  0
   -3.1683  -45.4738    6.8642 C   0  0  0  0  0  0  0  0  0  0  0  0
   -5.8891  -44.8568    7.3669 C   0  0  0  0  0  0  0  0  0  0  0  0
   -5.2680  -44.4265    6.2058 C   0  0  0  0  0  0  0  0  0  0  0  0
   -3.9435  -44.7561    5.9610 C   0  0  0  0  0  0  0  0  0  0  0  0
   -1.4941  -53.5270    7.1165 Cl  0  0  0  0  0  0  0  0  0  0  0  0
   -3.7958  -52.1670    6.2771 H   0  0  0  0  0  0  0  0  0  0  0  0
   -4.2014  -49.8787    5.4847 H   0  0  0  0  0  0  0  0  0  0  0  0
   -2.3239  -48.2724    5.3097 H   0  0  0  0  0  0  0  0  0  0  0  0
   -0.3921  -47.2252    4.7404 H   0  0  0  0  0  0  0  0  0  0  0  0
    1.3262  -47.3212    4.8056 H   0  0  0  0  0  0  0  0  0  0  0  0
    0.8115  -45.4448    6.1749 H   0  0  0  0  0  0  0  0  0  0  0  0
    1.2024  -46.7113    7.2925 H   0  0  0  0  0  0  0  0  0  0  0  0
   -0.7458  -45.6008    8.0953 H   0  0  0  0  0  0  0  0  0  0  0  0
   -1.1809  -47.2618    7.5059 H   0  0  0  0  0  0  0  0  0  0  0  0
   -3.4796  -44.4486    5.0441 H   0  0  0  0  0  0  0  0  0  0  0  0
   -5.1775  -45.6160    8.3299 C   0  0  0  0  0  0  0  0  0  0  0  0
   -3.7793  -45.9032    8.1169 C   0  0  0  0  0  0  0  0  0  0  0  0
   -3.1150  -46.5998    9.1832 C   0  0  0  0  0  0  0  0  0  0  0  0
   -3.8001  -47.0519   10.3073 C   0  0  0  0  0  0  0  0  0  0  0  0
   -5.1554  -46.8141   10.4545 C   0  0  0  0  0  0  0  0  0  0  0  0
   -5.8362  -46.0849    9.4906 C   0  0  0  0  0  0  0  0  0  0  0  0
   -2.0678  -46.8172    9.1999 H   0  0  0  0  0  0  0  0  0  0  0  0
   -3.2717  -47.6058   11.0698 H   0  0  0  0  0  0  0  0  0  0  0  0
   -5.6713  -47.1766   11.3275 H   0  0  0  0  0  0  0  0  0  0  0  0
   -6.8836  -45.8711    9.6146 H   0  0  0  0  0  0  0  0  0  0  0  0
   -5.8131  -43.8328    5.4814 H   0  0  0  0  0  0  0  0  0  0  0  0
   -6.9235  -44.5973    7.5302 H   0  0  0  0  0  0  0  0  0  0  0  0
  1  2  2  0
  2  3  1  0
  2  4  1  0
  4  5  1  0
  4 12  2  0
  5  6  1  0
  6  7  1  0
  6 11  2  0
  7  8  2  0
  7 21  1  0
  8  9  1  0
  8 22  1  0
  9 10  2  0
  9 23  1  0
 10 11  1  0
 10 24  1  0
 11 12  1  0
 12 13  1  0
 13 25  1  6
 13 26  1  0
 13 14  1  0
 14 15  1  0
 14 27  1  6
 14 28  1  0
 15 16  1  0
 15 29  1  1
 15 30  1  0
 16 17  1  0
 17 20  2  0
 17 33  1  0
 18 19  2  0
 18 32  1  0
 18 43  1  0
 19 20  1  0
 19 42  1  0
 20 31  1  0
 32 33  2  0
 32 37  1  0
 33 34  1  0
 34 35  2  0
 34 38  1  0
 35 36  1  0
 35 39  1  0
 36 37  2  0
 36 40  1  0
 37 41  1  0
M  CHG  1   3  -1
M  END
