54
     RDKit          3D

 44 47  0  0  1  0  0  0  0  0999 V2000
    3.3478  -48.4173    6.5720 O   0  0  0  0  0  0  0  0  0  0  0  0
    2.8388  -49.5557    6.5848 C   0  0  0  0  0  0  0  0  0  0  0  0
    3.4483  -50.6256    6.8416 O   0  0  0  0  0  0  0  0  0  0  0  0
    1.3686  -49.6643    6.3411 C   0  0  0  0  0  0  0  0  0  0  0  0
   -0.5625  -50.8698    6.4071 C   0  0  0  0  0  0  0  0  0  0  0  0
   -1.5354  -51.8642    6.5694 C   0  0  0  0  0  0  0  0  0  0  0  0
   -2.8499  -51.5261    6.2479 C   0  0  0  0  0  0  0  0  0  0  0  0
   -3.1772  -50.2531    5.7893 C   0  0  0  0  0  0  0  0  0  0  0  0
   -2.2084  -49.2604    5.6205 C   0  0  0  0  0  0  0  0  0  0  0  0
   -0.8667  -49.5602    5.9220 C   0  0  0  0  0  0  0  0  0  0  0  0
    0.3637  -48.8113    5.8496 C   0  0  0  0  0  0  0  0  0  0  0  0
    0.4941  -47.3829    5.3462 C   0  0  2  0  0  0  0  0  0  0  0  0
    0.4921  -46.3634    6.5011 C   0  0  2  0  0  0  0  0  0  0  0  0
   -0.8482  -46.2585    7.2540 C   0  0  2  0  0  0  0  0  0  0  0  0
   -1.8570  -45.6667    6.4484 O   0  0  0  0  0  0  0  0  0  0  0  0
   -3.1557  -45.4679    6.9012 C   0  0  0  0  0  0  0  0  0  0  0  0
   -5.6282  -45.2570    8.2561 C   0  0  0  0  0  0  0  0  0  0  0  0
   -4.5614  -45.9239    8.8390 C   0  0  0  0  0  0  0  0  0  0  0  0
   -3.3484  -46.0091    8.1742 C   0  0  0  0  0  0  0  0  0  0  0  0
   -1.2986  -52.8520    6.9308 H   0  0  0  0  0  0  0  0  0  0  0  0
   -4.0966  -52.7140    6.4180 Cl  0  0  0  0  0  0  0  0  0  0  0  0
   -4.2139  -50.0339    5.5648 H   0  0  0  0  0  0  0  0  0  0  0  0
   -2.4870  -48.2760    5.2766 H   0  0  0  0  0  0  0  0  0  0  0  0
   -0.2946  -47.1322    4.6360 H   0  0  0  0  0  0  0  0  0  0  0  0
    1.4262  -47.2753    4.7827 H   0  0  0  0  0  0  0  0  0  0  0  0
    0.7813  -45.3778    6.1309 H   0  0  0  0  0  0  0  0  0  0  0  0
    1.2712  -46.6616    7.2034 H   0  0  0  0  0  0  0  0  0  0  0  0
   -0.7092  -45.6540    8.1532 H   0  0  0  0  0  0  0  0  0  0  0  0
   -1.1456  -47.2703    7.5314 H   0  0  0  0  0  0  0  0  0  0  0  0
   -2.5202  -46.5088    8.6561 H   0  0  0  0  0  0  0  0  0  0  0  0
   -5.5008  -44.6692    6.9788 C   0  0  0  0  0  0  0  0  0  0  0  0
   -4.2669  -44.7884    6.2518 C   0  0  0  0  0  0  0  0  0  0  0  0
   -4.2595  -44.2048    4.9425 C   0  0  0  0  0  0  0  0  0  0  0  0
   -5.3558  -43.5156    4.4300 C   0  0  0  0  0  0  0  0  0  0  0  0
   -6.5180  -43.3796    5.1734 C   0  0  0  0  0  0  0  0  0  0  0  0
   -6.6033  -43.9609    6.4324 C   0  0  0  0  0  0  0  0  0  0  0  0
   -3.4282  -44.2576    4.2709 H   0  0  0  0  0  0  0  0  0  0  0  0
   -5.2899  -43.0835    3.4451 H   0  0  0  0  0  0  0  0  0  0  0  0
   -7.3549  -42.8301    4.7676 H   0  0  0  0  0  0  0  0  0  0  0  0
   -7.5170  -43.8657    7.0046 H   0  0  0  0  0  0  0  0  0  0  0  0
   -4.6664  -46.3641    9.8186 H   0  0  0  0  0  0  0  0  0  0  0  0
   -6.5687  -45.1778    8.7789 H   0  0  0  0  0  0  0  0  0  0  0  0
    0.8015  -50.8924    6.6395 N   0  0  0  0  0  0  0  0  0  0  0  0
    1.4200  -51.6277    6.9741 H   0  0  0  0  0  0  0  0  0  0  0  0
  1  2  2  0
  2  3  1  0
  2  4  1  0
  4 11  2  0
  4 43  1  0
  5  6  1  0
  5 10  2  0
  5 43  1  0
  6  7  2  0
  6 20  1  0
  7  8  1  0
  7 21  1  0
  8  9  2  0
  8 22  1  0
  9 10  1  0
  9 23  1  0
 10 11  1  0
 11 12  1  0
 12 24  1  6
 12 25  1  0
 12 13  1  0
 13 14  1  0
 13 26  1  6
 13 27  1  0
 14 15  1  0
 14 28  1  1
 14 29  1  0
 15 16  1  0
 16 19  2  0
 16 32  1  0
 17 18  2  0
 17 31  1  0
 17 42  1  0
 18 19  1  0
 18 41  1  0
 19 30  1  0
 31 32  2  0
 31 36  1  0
 32 33  1  0
 33 34  2  0
 33 37  1  0
 34 35  1  0
 34 38  1  0
 35 36  2  0
 35 39  1  0
 36 40  1  0
 43 44  1  0
M  CHG  1   3  -1
M  END
