26charg
     RDKit          3D

 45 47  0  0  1  0  0  0  0  0999 V2000
   44.5087   14.2799    0.4458 S   0  0  0  0  0  0  0  0  0  0  0  0
   44.6724   15.6521    1.5151 C   0  0  0  0  0  0  0  0  0  0  0  0
   45.4942   15.3357    2.5929 C   0  0  0  0  0  0  0  0  0  0  0  0
   45.9327   14.0054    2.5686 C   0  0  0  0  0  0  0  0  0  0  0  0
   45.5470   13.2994    1.4352 C   0  0  0  0  0  0  0  0  0  0  0  0
   43.9966   16.9101    1.1914 C   0  0  0  0  0  0  0  0  0  0  0  0
   43.3921   16.9804    0.1004 O   0  0  0  0  0  0  0  0  0  0  0  0
   44.0754   17.8442    2.0228 O   0  0  0  0  0  0  0  0  0  0  0  0
   45.8873   11.9043    1.0226 C   0  0  0  0  0  0  0  0  0  0  0  0
   47.1912   11.4197    1.1894 C   0  0  0  0  0  0  0  0  0  0  0  0
   47.5202   10.1013    0.8651 C   0  0  0  0  0  0  0  0  0  0  0  0
   46.5318    9.2669    0.3262 C   0  0  0  0  0  0  0  0  0  0  0  0
   45.2354    9.7445    0.1362 C   0  0  0  0  0  0  0  0  0  0  0  0
   44.9145   11.0540    0.4905 C   0  0  0  0  0  0  0  0  0  0  0  0
   46.9337   13.2378    3.9786 Br  0  0  0  0  0  0  0  0  0  0  0  0
   45.7976   16.2054    3.6038 O   0  0  0  0  0  0  0  0  0  0  0  0
   47.0769   16.8148    3.4399 C   0  0  2  0  0  0  0  0  0  0  0  0
   47.3906   17.6438    4.6904 C   0  0  0  0  0  0  0  0  0  0  0  0
   48.5187   18.1810    4.7214 O   0  0  0  0  0  0  0  0  0  0  0  0
   46.5366   17.7279    5.6063 O   0  0  0  0  0  0  0  0  0  0  0  0
   48.8387    9.6745    1.1078 N   0  0  0  0  0  0  0  0  0  0  0  0
   49.1257    8.2782    1.4384 C   0  0  1  0  0  0  0  0  0  0  0  0
   50.6645    8.1073    1.5183 C   0  0  2  0  0  0  0  0  0  0  0  0
   51.0793    6.7381    2.0910 C   0  0  2  0  0  0  0  0  0  0  0  0
   50.3594    6.4580    3.3545 N   0  0  1  0  0  0  0  0  0  0  0  0
   48.8823    6.5385    3.2997 C   0  0  2  0  0  0  0  0  0  0  0  0
   48.4391    7.9131    2.7808 C   0  0  2  0  0  0  0  0  0  0  0  0
   47.9504   12.0732    1.5923 H   0  0  0  0  0  0  0  0  0  0  0  0
   46.7528    8.2473    0.0505 H   0  0  0  0  0  0  0  0  0  0  0  0
   44.4770    9.0946   -0.2738 H   0  0  0  0  0  0  0  0  0  0  0  0
   43.9017   11.4033    0.3584 H   0  0  0  0  0  0  0  0  0  0  0  0
   47.0819   17.4695    2.5660 H   0  0  0  0  0  0  0  0  0  0  0  0
   47.8642   16.0704    3.3056 H   0  0  0  0  0  0  0  0  0  0  0  0
   49.4094   10.3360    1.6168 H   0  0  0  0  0  0  0  0  0  0  0  0
   48.7423    7.6326    0.6480 H   0  0  0  0  0  0  0  0  0  0  0  0
   51.0922    8.8778    2.1605 H   0  0  0  0  0  0  0  0  0  0  0  0
   51.1124    8.2471    0.5337 H   0  0  0  0  0  0  0  0  0  0  0  0
   52.1525    6.7104    2.2826 H   0  0  0  0  0  0  0  0  0  0  0  0
   50.8610    5.9254    1.3971 H   0  0  0  0  0  0  0  0  0  0  0  0
   48.4747    6.3615    4.2957 H   0  0  0  0  0  0  0  0  0  0  0  0
   48.5231    5.7266    2.6660 H   0  0  0  0  0  0  0  0  0  0  0  0
   47.3546    7.9174    2.6730 H   0  0  0  0  0  0  0  0  0  0  0  0
   48.6790    8.6633    3.5366 H   0  0  0  0  0  0  0  0  0  0  0  0
   50.5747    5.5212    3.6647 H   0  0  0  0  0  0  0  0  0  0  0  0
   50.6862    7.1070    4.0560 H   0  0  0  0  0  0  0  0  0  0  0  0
  1  2  1  0
  1  5  1  0
  2  3  2  0
  2  6  1  0
  3  4  1  0
  3 16  1  0
  4  5  2  0
  4 15  1  0
  5  9  1  0
  6  7  1  0
  6  8  2  0
  9 10  1  0
  9 14  2  0
 10 11  2  0
 10 28  1  0
 11 12  1  0
 11 21  1  0
 12 13  2  0
 12 29  1  0
 13 14  1  0
 13 30  1  0
 14 31  1  0
 16 17  1  0
 17 18  1  0
 17 32  1  6
 17 33  1  0
 18 19  1  0
 18 20  2  0
 21 22  1  0
 21 34  1  0
 22 23  1  0
 22 27  1  0
 22 35  1  6
 23 24  1  0
 23 36  1  1
 23 37  1  0
 24 25  1  0
 24 38  1  1
 24 39  1  0
 25 26  1  0
 25 44  1  1
 25 45  1  0
 26 27  1  0
 26 40  1  1
 26 41  1  0
 27 42  1  6
 27 43  1  0
M  CHG  3   7  -1  19  -1  25   1
M  END
