21086
     RDKit          3D

 52 55  0  0  1  0  0  0  0  0999 V2000
    6.3153    2.1526   21.4068 C   0  0  1  0  0  0  0  0  0  0  0  0
    6.4375    3.5773   20.8187 C   0  0  1  0  0  0  0  0  0  0  0  0
    6.2337    3.6193   19.2862 C   0  0  0  0  0  0  0  0  0  0  0  0
    5.1069    3.8798   18.8592 O   0  0  0  0  0  0  0  0  0  0  0  0
    7.2705    3.3667   18.4474 N   0  0  0  0  0  0  0  0  0  0  0  0
    7.1369    3.4327   16.9847 C   0  0  1  0  0  0  0  0  0  0  0  0
    7.5463    2.0800   16.3793 C   0  0  1  0  0  0  0  0  0  0  0  0
    8.8900    1.8006   16.7466 O   0  0  0  0  0  0  0  0  0  0  0  0
    9.0096    1.6610   18.1550 C   0  0  1  0  0  0  0  0  0  0  0  0
    8.6381    2.9899   18.8305 C   0  0  1  0  0  0  0  0  0  0  0  0
    5.5226    4.5005   21.5098 N   0  0  0  0  0  0  0  0  0  0  0  0
    4.1849    4.1158   21.9593 C   0  0  1  0  0  0  0  0  0  0  0  0
    3.4839    5.4498   22.2556 C   0  0  1  0  0  0  0  0  0  0  0  0
    4.6435    6.3803   22.6023 C   0  0  2  0  0  0  0  0  0  0  0  0
    4.3943    7.7689   22.2663 N   0  0  0  0  0  0  0  0  0  0  0  0
    4.4097    8.9810   23.4112 S   0  0  2  0  0  0  0  0  0  0  0  0
    3.5444    8.5784   24.4895 O   0  0  0  0  0  0  0  0  0  0  0  0
    4.1582   10.2115   22.7106 O   0  0  0  0  0  0  0  0  0  0  0  0
    6.0849    8.9945   23.9930 C   0  0  0  0  0  0  0  0  0  0  0  0
    7.1177    9.6658   23.3262 C   0  0  0  0  0  0  0  0  0  0  0  0
    8.3575    9.4911   23.9615 N   0  0  0  0  0  0  0  0  0  0  0  0
    8.2701    8.6989   25.1175 C   0  0  0  0  0  0  0  0  0  0  0  0
    9.4254    8.3244   25.9407 C   0  0  0  0  0  0  0  0  0  0  0  0
    9.3395    7.6013   27.1415 C   0  0  0  0  0  0  0  0  0  0  0  0
   10.6002    7.3095   27.6861 C   0  0  0  0  0  0  0  0  0  0  0  0
   11.6469    7.8019   26.8973 C   0  0  0  0  0  0  0  0  0  0  0  0
   13.3364    7.6536   27.1609 Cl  0  0  0  0  0  0  0  0  0  0  0  0
   11.0861    8.6656   25.4831 S   0  0  0  0  0  0  0  0  0  0  0  0
    6.6322    8.1488   25.4268 S   0  0  0  0  0  0  0  0  0  0  0  0
    5.7936    5.7792   21.8127 C   0  0  0  0  0  0  0  0  0  0  0  0
    6.8307    6.3914   21.5545 O   0  0  0  0  0  0  0  0  0  0  0  0
    5.3141    1.7486   21.2590 H   0  0  0  0  0  0  0  0  0  0  0  0
    7.0056    1.4446   20.9495 H   0  0  0  0  0  0  0  0  0  0  0  0
    6.5215    2.1513   22.4773 H   0  0  0  0  0  0  0  0  0  0  0  0
    7.4571    3.9228   20.9911 H   0  0  0  0  0  0  0  0  0  0  0  0
    6.1335    3.6665   16.6382 H   0  0  0  0  0  0  0  0  0  0  0  0
    7.7836    4.2242   16.6033 H   0  0  0  0  0  0  0  0  0  0  0  0
    6.8825    1.2827   16.7179 H   0  0  0  0  0  0  0  0  0  0  0  0
    7.4724    2.1173   15.2920 H   0  0  0  0  0  0  0  0  0  0  0  0
    8.3723    0.8500   18.5123 H   0  0  0  0  0  0  0  0  0  0  0  0
   10.0383    1.3908   18.3972 H   0  0  0  0  0  0  0  0  0  0  0  0
    9.3261    3.7751   18.5150 H   0  0  0  0  0  0  0  0  0  0  0  0
    8.7723    2.8942   19.9091 H   0  0  0  0  0  0  0  0  0  0  0  0
    3.6241    3.5246   21.2361 H   0  0  0  0  0  0  0  0  0  0  0  0
    4.2677    3.5252   22.8727 H   0  0  0  0  0  0  0  0  0  0  0  0
    2.9557    5.8001   21.3670 H   0  0  0  0  0  0  0  0  0  0  0  0
    2.7572    5.3630   23.0642 H   0  0  0  0  0  0  0  0  0  0  0  0
    4.8502    6.2930   23.6699 H   0  0  0  0  0  0  0  0  0  0  0  0
    4.9436    8.1201   21.4797 H   0  0  0  0  0  0  0  0  0  0  0  0
    7.0266   10.3000   22.4565 H   0  0  0  0  0  0  0  0  0  0  0  0
    8.4113    7.2965   27.6037 H   0  0  0  0  0  0  0  0  0  0  0  0
   10.7279    6.7673   28.6118 H   0  0  0  0  0  0  0  0  0  0  0  0
  1  2  1  0
  1 32  1  1
  1 33  1  0
  1 34  1  0
  2  3  1  0
  2 11  1  0
  2 35  1  6
  3  4  2  0
  3  5  1  0
  5 10  1  0
  5  6  1  0
  6  7  1  0
  6 36  1  1
  6 37  1  0
  7  8  1  0
  7 38  1  1
  7 39  1  0
  8  9  1  0
  9 10  1  0
  9 40  1  1
  9 41  1  0
 10 42  1  6
 10 43  1  0
 11 30  1  0
 11 12  1  0
 12 13  1  0
 12 44  1  6
 12 45  1  0
 13 14  1  0
 13 46  1  6
 13 47  1  0
 14 15  1  0
 14 30  1  0
 14 48  1  1
 16 15  1  6
 15 49  1  0
 16 17  2  0
 16 18  2  0
 16 19  1  0
 19 29  1  0
 19 20  2  0
 20 21  1  0
 20 50  1  0
 21 22  2  0
 22 23  1  0
 22 29  1  0
 23 28  1  0
 23 24  2  0
 24 25  1  0
 24 51  1  0
 25 26  2  0
 25 52  1  0
 26 27  1  0
 26 28  1  0
 30 31  2  0
M  END
