20524_2j95_cys
     RDKit          3D

 53 56  0  0  1  0  0  0  0  0999 V2000
    6.1867    2.1352   21.3152 C   0  0  1  0  0  0  0  0  0  0  0  0
    6.4375    3.5773   20.8187 C   0  0  1  0  0  0  0  0  0  0  0  0
    6.2337    3.6193   19.2862 C   0  0  0  0  0  0  0  0  0  0  0  0
    5.1069    3.8798   18.8592 O   0  0  0  0  0  0  0  0  0  0  0  0
    7.2705    3.3667   18.4474 N   0  0  0  0  0  0  0  0  0  0  0  0
    7.1369    3.4327   16.9847 C   0  0  1  0  0  0  0  0  0  0  0  0
    7.5463    2.0800   16.3793 C   0  0  1  0  0  0  0  0  0  0  0  0
    8.8900    1.8006   16.7466 O   0  0  0  0  0  0  0  0  0  0  0  0
    9.0096    1.6610   18.1550 C   0  0  1  0  0  0  0  0  0  0  0  0
    8.6381    2.9899   18.8305 C   0  0  1  0  0  0  0  0  0  0  0  0
    5.5226    4.5005   21.5098 N   0  0  0  0  0  0  0  0  0  0  0  0
    4.1849    4.1158   21.9593 C   0  0  1  0  0  0  0  0  0  0  0  0
    3.4839    5.4498   22.2556 C   0  0  1  0  0  0  0  0  0  0  0  0
    4.6435    6.3803   22.6023 C   0  0  2  0  0  0  0  0  0  0  0  0
    4.3943    7.7689   22.2663 N   0  0  0  0  0  0  0  0  0  0  0  0
    4.4097    8.9810   23.4112 S   0  0  2  0  0  0  0  0  0  0  0  0
    3.5444    8.5784   24.4895 O   0  0  0  0  0  0  0  0  0  0  0  0
    4.1582   10.2115   22.7106 O   0  0  0  0  0  0  0  0  0  0  0  0
    6.0849    8.9945   23.9930 C   0  0  0  0  0  0  0  0  0  0  0  0
    7.1177    9.6658   23.3262 C   0  0  0  0  0  0  0  0  0  0  0  0
    8.3575    9.4911   23.9615 C   0  0  0  0  0  0  0  0  0  0  0  0
    8.2701    8.6989   25.1175 C   0  0  0  0  0  0  0  0  0  0  0  0
    9.4254    8.3244   25.9407 C   0  0  0  0  0  0  0  0  0  0  0  0
    9.3395    7.6013   27.1415 C   0  0  0  0  0  0  0  0  0  0  0  0
   10.6002    7.3095   27.6861 C   0  0  0  0  0  0  0  0  0  0  0  0
   11.6469    7.8019   26.8973 C   0  0  0  0  0  0  0  0  0  0  0  0
   13.3370    7.6533   27.1593 Cl  0  0  0  0  0  0  0  0  0  0  0  0
   11.0861    8.6656   25.4831 S   0  0  0  0  0  0  0  0  0  0  0  0
    6.6322    8.1488   25.4268 S   0  0  0  0  0  0  0  0  0  0  0  0
    5.7936    5.7792   21.8127 C   0  0  0  0  0  0  0  0  0  0  0  0
    6.8307    6.3914   21.5545 O   0  0  0  0  0  0  0  0  0  0  0  0
    5.2053    1.7606   21.0207 H   0  0  0  0  0  0  0  0  0  0  0  0
    6.9266    1.4418   20.9180 H   0  0  0  0  0  0  0  0  0  0  0  0
    6.2547    2.0799   22.4018 H   0  0  0  0  0  0  0  0  0  0  0  0
    7.4536    3.8820   21.0673 H   0  0  0  0  0  0  0  0  0  0  0  0
    6.1251    3.6766   16.6567 H   0  0  0  0  0  0  0  0  0  0  0  0
    7.7786    4.2228   16.5927 H   0  0  0  0  0  0  0  0  0  0  0  0
    6.8855    1.2804   16.7194 H   0  0  0  0  0  0  0  0  0  0  0  0
    7.4732    2.1133   15.2919 H   0  0  0  0  0  0  0  0  0  0  0  0
    8.3739    0.8452   18.5016 H   0  0  0  0  0  0  0  0  0  0  0  0
   10.0372    1.3852   18.3921 H   0  0  0  0  0  0  0  0  0  0  0  0
    9.3283    3.7680   18.5010 H   0  0  0  0  0  0  0  0  0  0  0  0
    8.7944    2.8948   19.9021 H   0  0  0  0  0  0  0  0  0  0  0  0
    3.6453    3.5324   21.2115 H   0  0  0  0  0  0  0  0  0  0  0  0
    4.2647    3.5147   22.8657 H   0  0  0  0  0  0  0  0  0  0  0  0
    2.9573    5.7985   21.3651 H   0  0  0  0  0  0  0  0  0  0  0  0
    2.7546    5.3585   23.0610 H   0  0  0  0  0  0  0  0  0  0  0  0
    4.8525    6.2930   23.6702 H   0  0  0  0  0  0  0  0  0  0  0  0
    4.9668    8.1089   21.4961 H   0  0  0  0  0  0  0  0  0  0  0  0
    6.9846   10.2400   22.4217 H   0  0  0  0  0  0  0  0  0  0  0  0
    9.2649    9.9306   23.5722 H   0  0  0  0  0  0  0  0  0  0  0  0
    8.4170    7.2952   27.6128 H   0  0  0  0  0  0  0  0  0  0  0  0
   10.7292    6.7655   28.6103 H   0  0  0  0  0  0  0  0  0  0  0  0
  1  2  1  0
  1 32  1  1
  1 33  1  0
  1 34  1  0
  2  3  1  0
  2 11  1  0
  2 35  1  6
  3  4  2  0
  3  5  1  0
  5 10  1  0
  5  6  1  0
  6  7  1  0
  6 36  1  1
  6 37  1  0
  7  8  1  0
  7 38  1  1
  7 39  1  0
  8  9  1  0
  9 10  1  0
  9 40  1  1
  9 41  1  0
 10 42  1  6
 10 43  1  0
 11 30  1  0
 11 12  1  0
 12 13  1  0
 12 44  1  6
 12 45  1  0
 13 14  1  0
 13 46  1  6
 13 47  1  0
 14 15  1  0
 14 30  1  0
 14 48  1  1
 16 15  1  6
 15 49  1  0
 16 17  2  0
 16 18  2  0
 16 19  1  0
 19 29  1  0
 19 20  2  0
 20 21  1  0
 20 50  1  0
 21 22  2  0
 21 51  1  0
 22 23  1  0
 22 29  1  0
 23 28  1  0
 23 24  2  0
 24 25  1  0
 24 52  1  0
 25 26  2  0
 25 53  1  0
 26 27  1  0
 26 28  1  0
 30 31  2  0
M  END
