29neu
     RDKit          3D

 73 78  0  0  1  0  0  0  0  0999 V2000
   26.3431   -2.5427   53.9033 C   0  0  0  0  0  0  0  0  0  0  0  0
   25.1844   -1.7827   53.6681 C   0  0  0  0  0  0  0  0  0  0  0  0
   31.3428    0.9445   55.9612 C   0  0  0  0  0  0  0  0  0  0  0  0
   31.2582    2.2112   58.0424 C   0  0  0  0  0  0  0  0  0  0  0  0
   17.4950   -1.3446   52.2067 C   0  0  0  0  0  0  0  0  0  0  0  0
   27.3500   -2.0444   54.7529 C   0  0  0  0  0  0  0  0  0  0  0  0
   22.8251   -1.9942   55.9962 C   0  0  0  0  0  0  0  0  0  0  0  0
   22.2139   -3.0955   56.6186 C   0  0  0  0  0  0  0  0  0  0  0  0
   30.8335    1.1058   57.2774 C   0  0  0  0  0  0  0  0  0  0  0  0
   27.1947   -0.7818   55.3768 C   0  0  0  0  0  0  0  0  0  0  0  0
   22.0582   -1.3097   55.0217 C   0  0  0  0  0  0  0  0  0  0  0  0
   23.8303    0.2569   54.0338 C   0  0  0  0  0  0  0  0  0  0  0  0
   20.3265   -2.7825   55.3656 C   0  0  0  0  0  0  0  0  0  0  0  0
   20.4267    1.1515   53.4664 C   0  0  0  0  0  0  0  0  0  0  0  0
   29.1348   -0.7952   56.9500 C   0  0  0  0  0  0  0  0  0  0  0  0
   32.6301    2.9991   56.1929 C   0  0  0  0  0  0  0  0  0  0  0  0
   32.2317    1.8937   55.4216 C   0  0  0  0  0  0  0  0  0  0  0  0
   32.1645    3.1449   57.5066 C   0  0  0  0  0  0  0  0  0  0  0  0
   15.7081   -2.2996   53.5751 C   0  0  0  0  0  0  0  0  0  0  0  0
   18.4556   -1.8539   53.0932 C   0  0  0  0  0  0  0  0  0  0  0  0
   16.6759   -2.7727   54.4808 C   0  0  0  0  0  0  0  0  0  0  0  0
   26.0548   -0.0076   55.0904 C   0  0  0  0  0  0  0  0  0  0  0  0
   25.0468   -0.5053   54.2517 C   0  0  0  0  0  0  0  0  0  0  0  0
   16.1349   -1.6008   52.4318 C   0  0  0  0  0  0  0  0  0  0  0  0
   18.0559   -2.6023   54.2215 C   0  0  0  0  0  0  0  0  0  0  0  0
   22.5376   -0.1240   54.3044 C   0  0  0  0  0  0  0  0  0  0  0  0
   22.6466    1.8175   53.2511 C   0  0  0  0  0  0  0  0  0  0  0  0
   20.2198    2.3502   52.8301 C   0  0  0  0  0  0  0  0  0  0  0  0
   29.8868    0.1052   57.9322 C   0  0  1  0  0  0  0  0  0  0  0  0
   20.9592   -3.4956   56.2948 N   0  0  0  0  0  0  0  0  0  0  0  0
   20.8110   -1.7091   54.7336 N   0  0  0  0  0  0  0  0  0  0  0  0
   23.8882    1.5190   53.4623 N   0  0  0  0  0  0  0  0  0  0  0  0
   21.7438    0.8687   53.7038 N   0  0  0  0  0  0  0  0  0  0  0  0
   19.0415   -3.1689   55.0418 N   0  0  0  0  0  0  0  0  0  0  0  0
   28.1176   -0.2092   56.2908 N   0  0  0  0  0  0  0  0  0  0  0  0
   29.4804   -1.9639   56.8122 O   0  0  0  0  0  0  0  0  0  0  0  0
   21.7489    3.1382   52.5302 S   0  0  0  0  0  0  0  0  0  0  0  0
   26.4613   -3.5064   53.4341 H   0  0  0  0  0  0  0  0  0  0  0  0
   24.4057   -2.1736   53.0312 H   0  0  0  0  0  0  0  0  0  0  0  0
   31.0754    0.0872   55.3661 H   0  0  0  0  0  0  0  0  0  0  0  0
   30.9074    2.3307   59.0574 H   0  0  0  0  0  0  0  0  0  0  0  0
   17.8105   -0.7687   51.3500 H   0  0  0  0  0  0  0  0  0  0  0  0
   28.2248   -2.6543   54.9091 H   0  0  0  0  0  0  0  0  0  0  0  0
   23.8216   -1.6843   56.2774 H   0  0  0  0  0  0  0  0  0  0  0  0
   22.7241   -3.6652   57.3801 H   0  0  0  0  0  0  0  0  0  0  0  0
   19.6647    0.4604   53.7955 H   0  0  0  0  0  0  0  0  0  0  0  0
   33.3291    3.7228   55.7892 H   0  0  0  0  0  0  0  0  0  0  0  0
   32.6244    1.7664   54.4244 H   0  0  0  0  0  0  0  0  0  0  0  0
   32.5021    3.9767   58.1101 H   0  0  0  0  0  0  0  0  0  0  0  0
   19.5003   -1.6793   52.8905 H   0  0  0  0  0  0  0  0  0  0  0  0
   16.3388   -3.2663   55.3742 H   0  0  0  0  0  0  0  0  0  0  0  0
   25.9297    0.9623   55.5522 H   0  0  0  0  0  0  0  0  0  0  0  0
   19.3077    2.8477   52.5433 H   0  0  0  0  0  0  0  0  0  0  0  0
   30.4776   -0.5175   58.6100 H   0  0  0  0  0  0  0  0  0  0  0  0
   29.1670    0.6372   58.5522 H   0  0  0  0  0  0  0  0  0  0  0  0
   18.6929   -3.9030   55.6501 H   0  0  0  0  0  0  0  0  0  0  0  0
   27.9403    0.7633   56.5392 H   0  0  0  0  0  0  0  0  0  0  0  0
   15.4358   -1.1710   51.7339 H   0  0  0  0  0  0  0  0  0  0  0  0
   14.2129   -2.4587   53.8631 C   0  0  1  0  0  0  0  0  0  0  0  0
   14.0994   -3.0270   54.7831 H   0  0  0  0  0  0  0  0  0  0  0  0
   13.7976   -1.4773   54.0807 H   0  0  0  0  0  0  0  0  0  0  0  0
   13.3763   -3.1479   52.7474 C   0  0  1  0  0  0  0  0  0  0  0  0
   13.8002   -4.1335   52.5558 H   0  0  0  0  0  0  0  0  0  0  0  0
   12.3607   -3.3034   53.1194 H   0  0  0  0  0  0  0  0  0  0  0  0
   13.2917   -2.4169   51.4396 N   0  0  0  0  0  0  0  0  0  0  0  0
   12.4955   -3.1626   50.4341 C   0  0  1  0  0  0  0  0  0  0  0  0
   11.4614   -3.1103   50.7587 H   0  0  0  0  0  0  0  0  0  0  0  0
   12.5698   -2.7008   49.4526 H   0  0  0  0  0  0  0  0  0  0  0  0
   12.7955   -4.2030   50.3479 H   0  0  0  0  0  0  0  0  0  0  0  0
   12.7643   -1.0259   51.5579 C   0  0  1  0  0  0  0  0  0  0  0  0
   11.7619   -1.0301   51.9936 H   0  0  0  0  0  0  0  0  0  0  0  0
   13.4071   -0.4022   52.1783 H   0  0  0  0  0  0  0  0  0  0  0  0
   12.7115   -0.5515   50.5757 H   0  0  0  0  0  0  0  0  0  0  0  0
  1  2  1  0
  1  6  2  0
  1 38  1  0
  2 23  2  0
  2 39  1  0
  3  9  1  0
  3 17  2  0
  3 40  1  0
  4  9  2  0
  4 18  1  0
  4 41  1  0
  5 20  1  0
  5 24  2  0
  5 42  1  0
  6 10  1  0
  6 43  1  0
  7  8  1  0
  7 11  2  0
  7 44  1  0
  8 30  2  0
  8 45  1  0
  9 29  1  0
 10 22  2  0
 10 35  1  0
 11 26  1  0
 11 31  1  0
 12 23  1  0
 12 26  2  0
 12 32  1  0
 13 30  1  0
 13 31  2  0
 13 34  1  0
 14 28  2  0
 14 33  1  0
 14 46  1  0
 15 29  1  0
 15 35  1  0
 15 36  2  0
 16 17  1  0
 16 18  2  0
 16 47  1  0
 17 48  1  0
 18 49  1  0
 19 21  2  0
 19 24  1  0
 19 59  1  0
 20 25  2  0
 20 50  1  0
 21 25  1  0
 21 51  1  0
 22 23  1  0
 22 52  1  0
 24 58  1  0
 25 34  1  0
 26 33  1  0
 27 32  2  0
 27 33  1  0
 27 37  1  0
 28 37  1  0
 28 53  1  0
 29 54  1  1
 29 55  1  0
 34 56  1  0
 35 57  1  0
 59 60  1  1
 59 61  1  0
 59 62  1  0
 62 63  1  6
 62 64  1  0
 62 65  1  0
 65 66  1  0
 65 70  1  0
 66 67  1  1
 66 68  1  0
 66 69  1  0
 70 71  1  1
 70 72  1  0
 70 73  1  0
M  END
