28neu
     RDKit          3D

 79 85  0  0  1  0  0  0  0  0999 V2000
   26.3432   -2.5458   53.9250 C   0  0  0  0  0  0  0  0  0  0  0  0
   25.1865   -1.7829   53.6832 C   0  0  0  0  0  0  0  0  0  0  0  0
   31.2517    2.2246   58.0484 C   0  0  0  0  0  0  0  0  0  0  0  0
   31.3440    0.9532   55.9818 C   0  0  0  0  0  0  0  0  0  0  0  0
   15.7101   -2.1778   53.7665 C   0  0  0  0  0  0  0  0  0  0  0  0
   27.3479   -2.0474   54.7714 C   0  0  0  0  0  0  0  0  0  0  0  0
   22.8289   -1.9894   55.9938 C   0  0  0  0  0  0  0  0  0  0  0  0
   22.2209   -3.0948   56.6206 C   0  0  0  0  0  0  0  0  0  0  0  0
   30.8295    1.1189   57.2881 C   0  0  0  0  0  0  0  0  0  0  0  0
   27.1910   -0.7833   55.3838 C   0  0  0  0  0  0  0  0  0  0  0  0
   22.0639   -1.3126   55.0130 C   0  0  0  0  0  0  0  0  0  0  0  0
   23.8302    0.2581   54.0247 C   0  0  0  0  0  0  0  0  0  0  0  0
   20.3352   -2.7899   55.3600 C   0  0  0  0  0  0  0  0  0  0  0  0
   20.4272    1.1319   53.4466 C   0  0  0  0  0  0  0  0  0  0  0  0
   29.1305   -0.7886   56.9627 C   0  0  0  0  0  0  0  0  0  0  0  0
   32.6285    3.0063   56.2026 C   0  0  0  0  0  0  0  0  0  0  0  0
   32.1547    3.1583   57.5150 C   0  0  0  0  0  0  0  0  0  0  0  0
   32.2309    1.8968   55.4383 C   0  0  0  0  0  0  0  0  0  0  0  0
   17.3976   -1.1684   52.3481 C   0  0  0  0  0  0  0  0  0  0  0  0
   16.7088   -2.8172   54.5120 C   0  0  0  0  0  0  0  0  0  0  0  0
   18.3965   -1.8442   53.0704 C   0  0  0  0  0  0  0  0  0  0  0  0
   26.0535   -0.0110   55.0875 C   0  0  0  0  0  0  0  0  0  0  0  0
   25.0460   -0.5022   54.2487 C   0  0  0  0  0  0  0  0  0  0  0  0
   16.0375   -1.3073   52.7046 C   0  0  0  0  0  0  0  0  0  0  0  0
   18.0647   -2.6170   54.2074 C   0  0  0  0  0  0  0  0  0  0  0  0
   22.5421   -0.1268   54.2927 C   0  0  0  0  0  0  0  0  0  0  0  0
   22.6500    1.8113   53.2371 C   0  0  0  0  0  0  0  0  0  0  0  0
   20.2320    2.3266   52.7968 C   0  0  0  0  0  0  0  0  0  0  0  0
   15.1594   -0.0412   50.6958 C   0  0  2  0  0  0  0  0  0  0  0  0
   13.7232   -0.3367   52.6740 C   0  0  2  0  0  0  0  0  0  0  0  0
   14.8268    1.4643   50.7163 C   0  0  1  0  0  0  0  0  0  0  0  0
   13.4017    1.1673   52.6232 C   0  0  1  0  0  0  0  0  0  0  0  0
   29.8801    0.1162   57.9438 C   0  0  1  0  0  0  0  0  0  0  0  0
   20.9688   -3.5000   56.3014 N   0  0  0  0  0  0  0  0  0  0  0  0
   20.8202   -1.7213   54.7225 N   0  0  0  0  0  0  0  0  0  0  0  0
   23.8895    1.5141   53.4499 N   0  0  0  0  0  0  0  0  0  0  0  0
   21.7412    0.8549   53.6895 N   0  0  0  0  0  0  0  0  0  0  0  0
   15.0154   -0.6059   52.0380 N   0  0  0  0  0  0  0  0  0  0  0  0
   19.0448   -3.1825   55.0397 N   0  0  0  0  0  0  0  0  0  0  0  0
   28.1151   -0.2107   56.2970 N   0  0  0  0  0  0  0  0  0  0  0  0
   29.5193   -1.9440   56.8091 O   0  0  0  0  0  0  0  0  0  0  0  0
   13.4659    1.6715   51.2432 N   0  0  0  0  0  0  0  0  0  0  0  0
   21.7486    3.1291   52.5057 S   0  0  0  0  0  0  0  0  0  0  0  0
   26.4525   -3.5189   53.4679 H   0  0  0  0  0  0  0  0  0  0  0  0
   24.4097   -2.1811   53.0504 H   0  0  0  0  0  0  0  0  0  0  0  0
   30.8979    2.3437   59.0567 H   0  0  0  0  0  0  0  0  0  0  0  0
   31.0753    0.1001   55.3861 H   0  0  0  0  0  0  0  0  0  0  0  0
   14.6880   -2.3534   54.0554 H   0  0  0  0  0  0  0  0  0  0  0  0
   28.2185   -2.6524   54.9321 H   0  0  0  0  0  0  0  0  0  0  0  0
   23.8280   -1.6769   56.2719 H   0  0  0  0  0  0  0  0  0  0  0  0
   22.7369   -3.6571   57.3848 H   0  0  0  0  0  0  0  0  0  0  0  0
   19.6560    0.4493   53.7601 H   0  0  0  0  0  0  0  0  0  0  0  0
   33.3114    3.7340   55.7908 H   0  0  0  0  0  0  0  0  0  0  0  0
   32.4842    3.9954   58.1107 H   0  0  0  0  0  0  0  0  0  0  0  0
   32.6164    1.7688   54.4401 H   0  0  0  0  0  0  0  0  0  0  0  0
   17.7019   -0.5319   51.5365 H   0  0  0  0  0  0  0  0  0  0  0  0
   16.4247   -3.4292   55.3474 H   0  0  0  0  0  0  0  0  0  0  0  0
   19.4239   -1.7308   52.7523 H   0  0  0  0  0  0  0  0  0  0  0  0
   25.9236    0.9575   55.5386 H   0  0  0  0  0  0  0  0  0  0  0  0
   19.3075    2.7873   52.4717 H   0  0  0  0  0  0  0  0  0  0  0  0
   16.1471   -0.1997   50.2714 H   0  0  0  0  0  0  0  0  0  0  0  0
   14.4674   -0.5555   50.0268 H   0  0  0  0  0  0  0  0  0  0  0  0
   12.9470   -0.9008   52.1560 H   0  0  0  0  0  0  0  0  0  0  0  0
   13.6936   -0.6460   53.7163 H   0  0  0  0  0  0  0  0  0  0  0  0
   15.5492    2.0017   51.3265 H   0  0  0  0  0  0  0  0  0  0  0  0
   14.9005    1.8671   49.7066 H   0  0  0  0  0  0  0  0  0  0  0  0
   12.4047    1.3398   53.0324 H   0  0  0  0  0  0  0  0  0  0  0  0
   14.1003    1.7164   53.2522 H   0  0  0  0  0  0  0  0  0  0  0  0
   30.4523   -0.5083   58.6272 H   0  0  0  0  0  0  0  0  0  0  0  0
   29.1521    0.6499   58.5553 H   0  0  0  0  0  0  0  0  0  0  0  0
   18.7006   -3.9347   55.6330 H   0  0  0  0  0  0  0  0  0  0  0  0
   27.9353    0.7604   56.5494 H   0  0  0  0  0  0  0  0  0  0  0  0
   13.1270    3.0992   51.2744 C   0  0  1  0  0  0  0  0  0  0  0  0
   12.8465    3.6799   49.8726 C   0  0  1  0  0  0  0  0  0  0  0  0
   12.2277    3.2328   51.8693 H   0  0  0  0  0  0  0  0  0  0  0  0
   13.9075    3.6603   51.7879 H   0  0  0  0  0  0  0  0  0  0  0  0
   12.4831    4.7049   49.9552 H   0  0  0  0  0  0  0  0  0  0  0  0
   13.7422    3.7042   49.2549 H   0  0  0  0  0  0  0  0  0  0  0  0
   12.0836    3.1031   49.3524 H   0  0  0  0  0  0  0  0  0  0  0  0
  1  2  1  0
  1  6  2  0
  1 44  1  0
  2 23  2  0
  2 45  1  0
  3  9  1  0
  3 17  2  0
  3 46  1  0
  4  9  2  0
  4 18  1  0
  4 47  1  0
  5 20  1  0
  5 24  2  0
  5 48  1  0
  6 10  1  0
  6 49  1  0
  7  8  1  0
  7 11  2  0
  7 50  1  0
  8 34  2  0
  8 51  1  0
  9 33  1  0
 10 22  2  0
 10 40  1  0
 11 26  1  0
 11 35  1  0
 12 23  1  0
 12 26  2  0
 12 36  1  0
 13 34  1  0
 13 35  2  0
 13 39  1  0
 14 28  2  0
 14 37  1  0
 14 52  1  0
 15 33  1  0
 15 40  1  0
 15 41  2  0
 16 17  1  0
 16 18  2  0
 16 53  1  0
 17 54  1  0
 18 55  1  0
 19 21  2  0
 19 24  1  0
 19 56  1  0
 20 25  2  0
 20 57  1  0
 21 25  1  0
 21 58  1  0
 22 23  1  0
 22 59  1  0
 24 38  1  0
 25 39  1  0
 26 37  1  0
 27 36  2  0
 27 37  1  0
 27 43  1  0
 28 43  1  0
 28 60  1  0
 29 31  1  0
 29 38  1  0
 29 61  1  6
 29 62  1  0
 30 32  1  0
 30 38  1  0
 30 63  1  6
 30 64  1  0
 31 42  1  0
 31 65  1  1
 31 66  1  0
 32 42  1  0
 32 67  1  1
 32 68  1  0
 33 69  1  1
 33 70  1  0
 39 71  1  0
 40 72  1  0
 42 73  1  0
 73 74  1  0
 73 75  1  1
 73 76  1  0
 74 77  1  1
 74 78  1  0
 74 79  1  0
M  END
