27chargS
     RDKit          3D

 72 78  0  0  1  0  0  0  0  0999 V2000
   26.3411   -2.5500   53.9039 C   0  0  0  0  0  0  0  0  0  0  0  0
   25.1791   -1.7899   53.6735 C   0  0  0  0  0  0  0  0  0  0  0  0
   31.2584    2.2092   58.0483 C   0  0  0  0  0  0  0  0  0  0  0  0
   31.3431    0.9400   55.9683 C   0  0  0  0  0  0  0  0  0  0  0  0
   17.4460   -1.2353   52.2694 C   0  0  0  0  0  0  0  0  0  0  0  0
   27.3528   -2.0524   54.7508 C   0  0  0  0  0  0  0  0  0  0  0  0
   22.8241   -1.9916   55.9951 C   0  0  0  0  0  0  0  0  0  0  0  0
   22.2139   -3.0991   56.6151 C   0  0  0  0  0  0  0  0  0  0  0  0
   30.8364    1.1019   57.2826 C   0  0  0  0  0  0  0  0  0  0  0  0
   27.1964   -0.7832   55.3736 C   0  0  0  0  0  0  0  0  0  0  0  0
   22.0592   -1.3040   55.0228 C   0  0  0  0  0  0  0  0  0  0  0  0
   23.8288    0.2564   54.0390 C   0  0  0  0  0  0  0  0  0  0  0  0
   20.3336   -2.7839   55.3658 C   0  0  0  0  0  0  0  0  0  0  0  0
   20.4380    1.1660   53.4722 C   0  0  0  0  0  0  0  0  0  0  0  0
   29.1371   -0.7978   56.9486 C   0  0  0  0  0  0  0  0  0  0  0  0
   32.6283    3.0034   56.1923 C   0  0  0  0  0  0  0  0  0  0  0  0
   32.1640    3.1463   57.5128 C   0  0  0  0  0  0  0  0  0  0  0  0
   32.2275    1.8919   55.4243 C   0  0  0  0  0  0  0  0  0  0  0  0
   15.7194   -2.1427   53.7268 C   0  0  0  0  0  0  0  0  0  0  0  0
   18.4147   -1.8553   53.0738 C   0  0  0  0  0  0  0  0  0  0  0  0
   16.7034   -2.7718   54.5214 C   0  0  0  0  0  0  0  0  0  0  0  0
   26.0543   -0.0086   55.0856 C   0  0  0  0  0  0  0  0  0  0  0  0
   25.0437   -0.5085   54.2515 C   0  0  0  0  0  0  0  0  0  0  0  0
   16.0885   -1.3777   52.5922 C   0  0  0  0  0  0  0  0  0  0  0  0
   18.0674   -2.6066   54.2147 C   0  0  0  0  0  0  0  0  0  0  0  0
   22.5390   -0.1182   54.3047 C   0  0  0  0  0  0  0  0  0  0  0  0
   22.6585    1.8311   53.2572 C   0  0  0  0  0  0  0  0  0  0  0  0
   20.2210    2.3542   52.8210 C   0  0  0  0  0  0  0  0  0  0  0  0
   29.8935    0.0963   57.9443 C   0  0  1  0  0  0  0  0  0  0  0  0
   20.9628   -3.5002   56.2960 N   0  0  0  0  0  0  0  0  0  0  0  0
   20.8127   -1.7088   54.7370 N   0  0  0  0  0  0  0  0  0  0  0  0
   23.8936    1.5210   53.4691 N   0  0  0  0  0  0  0  0  0  0  0  0
   21.7492    0.8820   53.7084 N   0  0  0  0  0  0  0  0  0  0  0  0
   15.0263   -0.7504   51.6922 C   0  0  1  0  0  0  0  0  0  0  0  0
   19.0480   -3.1749   55.0442 N   0  0  0  0  0  0  0  0  0  0  0  0
   28.1223   -0.2107   56.2877 N   0  0  0  0  0  0  0  0  0  0  0  0
   29.4938   -1.9646   56.7959 O   0  0  0  0  0  0  0  0  0  0  0  0
   21.7635    3.1531   52.5226 S   0  0  0  0  0  0  0  0  0  0  0  0
   26.4567   -3.5192   53.4439 H   0  0  0  0  0  0  0  0  0  0  0  0
   24.3991   -2.1848   53.0388 H   0  0  0  0  0  0  0  0  0  0  0  0
   30.9016    2.3264   59.0606 H   0  0  0  0  0  0  0  0  0  0  0  0
   31.0755    0.0858   55.3695 H   0  0  0  0  0  0  0  0  0  0  0  0
   28.2280   -2.6635   54.9040 H   0  0  0  0  0  0  0  0  0  0  0  0
   23.8187   -1.6857   56.2788 H   0  0  0  0  0  0  0  0  0  0  0  0
   22.7272   -3.6674   57.3764 H   0  0  0  0  0  0  0  0  0  0  0  0
   19.6762    0.4744   53.7911 H   0  0  0  0  0  0  0  0  0  0  0  0
   33.3155    3.7292   55.7855 H   0  0  0  0  0  0  0  0  0  0  0  0
   32.4971    3.9804   58.1108 H   0  0  0  0  0  0  0  0  0  0  0  0
   32.6155    1.7645   54.4225 H   0  0  0  0  0  0  0  0  0  0  0  0
   19.4304   -1.7548   52.7486 H   0  0  0  0  0  0  0  0  0  0  0  0
   16.4000   -3.3264   55.3923 H   0  0  0  0  0  0  0  0  0  0  0  0
   25.9243    0.9605   55.5488 H   0  0  0  0  0  0  0  0  0  0  0  0
   19.2986    2.8159   52.5045 H   0  0  0  0  0  0  0  0  0  0  0  0
   30.4880   -0.5291   58.6105 H   0  0  0  0  0  0  0  0  0  0  0  0
   29.1734    0.6206   58.5734 H   0  0  0  0  0  0  0  0  0  0  0  0
   18.6769   -3.8784   55.6784 H   0  0  0  0  0  0  0  0  0  0  0  0
   27.9318    0.7576   56.5497 H   0  0  0  0  0  0  0  0  0  0  0  0
   15.3810    0.2091   51.3119 H   0  0  0  0  0  0  0  0  0  0  0  0
   13.6775   -0.5598   52.4218 C   0  0  2  0  0  0  0  0  0  0  0  0
   14.2764   -2.1836   54.1880 C   0  0  1  0  0  0  0  0  0  0  0  0
   14.0944   -3.1803   54.5928 H   0  0  0  0  0  0  0  0  0  0  0  0
   14.2013   -1.4514   54.9931 H   0  0  0  0  0  0  0  0  0  0  0  0
   13.2789   -1.8085   53.1399 N   0  0  1  0  0  0  0  0  0  0  0  0
   12.9093   -0.2751   51.7015 H   0  0  0  0  0  0  0  0  0  0  0  0
   13.7588    0.2601   53.1403 H   0  0  0  0  0  0  0  0  0  0  0  0
   17.7490   -0.6732   51.3994 H   0  0  0  0  0  0  0  0  0  0  0  0
   14.8970   -1.3976   50.8253 H   0  0  0  0  0  0  0  0  0  0  0  0
   13.2747   -2.5590   52.4531 H   0  0  0  0  0  0  0  0  0  0  0  0
   11.8985   -1.7267   53.6978 C   0  0  1  0  0  0  0  0  0  0  0  0
   11.8225   -0.9153   54.4300 H   0  0  0  0  0  0  0  0  0  0  0  0
   11.1707   -1.5401   52.9059 H   0  0  0  0  0  0  0  0  0  0  0  0
   11.6243   -2.6573   54.1947 H   0  0  0  0  0  0  0  0  0  0  0  0
  1  2  1  0
  1  6  2  0
  1 39  1  0
  2 23  2  0
  2 40  1  0
  3  9  1  0
  3 17  2  0
  3 41  1  0
  4  9  2  0
  4 18  1  0
  4 42  1  0
  5 20  1  0
  5 24  2  0
  5 66  1  0
  6 10  1  0
  6 43  1  0
  7  8  1  0
  7 11  2  0
  7 44  1  0
  8 30  2  0
  8 45  1  0
  9 29  1  0
 10 22  2  0
 10 36  1  0
 11 26  1  0
 11 31  1  0
 12 23  1  0
 12 26  2  0
 12 32  1  0
 13 30  1  0
 13 31  2  0
 13 35  1  0
 14 28  2  0
 14 33  1  0
 14 46  1  0
 15 29  1  0
 15 36  1  0
 15 37  2  0
 16 17  1  0
 16 18  2  0
 16 47  1  0
 17 48  1  0
 18 49  1  0
 19 21  2  0
 19 24  1  0
 19 60  1  0
 20 25  2  0
 20 50  1  0
 21 25  1  0
 21 51  1  0
 22 23  1  0
 22 52  1  0
 24 34  1  0
 25 35  1  0
 26 33  1  0
 27 32  2  0
 27 33  1  0
 27 38  1  0
 28 38  1  0
 28 53  1  0
 29 54  1  1
 29 55  1  0
 34 58  1  6
 34 59  1  0
 34 67  1  0
 35 56  1  0
 36 57  1  0
 59 63  1  0
 59 64  1  6
 59 65  1  0
 60 61  1  1
 60 62  1  0
 60 63  1  0
 63 68  1  6
 63 69  1  0
 69 70  1  1
 69 71  1  0
 69 72  1  0
M  CHG  1  63   1
M  END
