11b
     RDKit          3D

 50 52  0  0  1  0  0  0  0  0999 V2000
   19.9671   -4.9253    4.0645 F   0  0  0  0  0  0  0  0  0  0  0  0
   19.6027   -4.4927    2.8422 C   0  0  0  0  0  0  0  0  0  0  0  0
   18.6174   -3.4971    2.6568 C   0  0  0  0  0  0  0  0  0  0  0  0
   17.9847   -2.7755    3.6992 N   0  0  0  0  0  0  0  0  0  0  0  0
   18.4344   -2.5082    4.9341 C   0  0  0  0  0  0  0  0  0  0  0  0
   19.5423   -2.8111    5.3555 O   0  0  0  0  0  0  0  0  0  0  0  0
   17.5413   -1.8182    5.6552 N   0  0  0  0  0  0  0  0  0  0  0  0
   17.7120   -1.3358    6.9757 C   0  0  0  0  0  0  0  0  0  0  0  0
   17.0938   -0.1293    7.3512 C   0  0  0  0  0  0  0  0  0  0  0  0
   16.2824    0.5282    6.4490 O   0  0  0  0  0  0  0  0  0  0  0  0
   15.3778    1.4960    6.8258 C   0  0  0  0  0  0  0  0  0  0  0  0
   15.2975    2.7295    6.1281 C   0  0  0  0  0  0  0  0  0  0  0  0
   16.2374    3.0468    4.9474 C   0  0  2  0  0  0  0  0  0  0  0  0
   17.6947    3.0859    5.4286 C   0  0  1  0  0  0  0  0  0  0  0  0
   15.9540    4.4145    4.2979 C   0  0  1  0  0  0  0  0  0  0  0  0
   16.0850    1.9989    3.8296 C   0  0  1  0  0  0  0  0  0  0  0  0
   14.3255    3.6676    6.5488 C   0  0  0  0  0  0  0  0  0  0  0  0
   13.4526    3.3939    7.6065 C   0  0  0  0  0  0  0  0  0  0  0  0
   13.5228    2.1689    8.2656 C   0  0  0  0  0  0  0  0  0  0  0  0
   14.4671    1.2229    7.8636 C   0  0  0  0  0  0  0  0  0  0  0  0
   17.2679    0.4227    8.5728 N   0  0  0  0  0  0  0  0  0  0  0  0
   18.0254   -0.2261    9.4773 C   0  0  0  0  0  0  0  0  0  0  0  0
   18.6305   -1.4621    9.2179 C   0  0  0  0  0  0  0  0  0  0  0  0
   18.4728   -2.0232    7.9450 C   0  0  0  0  0  0  0  0  0  0  0  0
   18.1824   -3.2185    1.3531 C   0  0  0  0  0  0  0  0  0  0  0  0
   18.7547   -3.8742    0.2527 C   0  0  0  0  0  0  0  0  0  0  0  0
   19.7554   -4.8320    0.4441 C   0  0  0  0  0  0  0  0  0  0  0  0
   20.2727   -5.5040   -0.6068 F   0  0  0  0  0  0  0  0  0  0  0  0
   20.1790   -5.1356    1.7398 C   0  0  0  0  0  0  0  0  0  0  0  0
   17.1128   -2.3344    3.4503 H   0  0  0  0  0  0  0  0  0  0  0  0
   16.7284   -1.4859    5.1585 H   0  0  0  0  0  0  0  0  0  0  0  0
   18.0487    2.1235    5.7917 H   0  0  0  0  0  0  0  0  0  0  0  0
   18.3707    3.3747    4.6240 H   0  0  0  0  0  0  0  0  0  0  0  0
   17.8233    3.8083    6.2348 H   0  0  0  0  0  0  0  0  0  0  0  0
   14.9409    4.4778    3.8989 H   0  0  0  0  0  0  0  0  0  0  0  0
   16.0984    5.2341    5.0034 H   0  0  0  0  0  0  0  0  0  0  0  0
   16.6309    4.6033    3.4640 H   0  0  0  0  0  0  0  0  0  0  0  0
   15.0495    1.9374    3.4934 H   0  0  0  0  0  0  0  0  0  0  0  0
   16.6918    2.2495    2.9574 H   0  0  0  0  0  0  0  0  0  0  0  0
   16.3833    0.9943    4.1261 H   0  0  0  0  0  0  0  0  0  0  0  0
   14.2096    4.6232    6.0662 H   0  0  0  0  0  0  0  0  0  0  0  0
   12.7181    4.1243    7.9098 H   0  0  0  0  0  0  0  0  0  0  0  0
   12.8395    1.9384    9.0659 H   0  0  0  0  0  0  0  0  0  0  0  0
   14.4951    0.2703    8.3696 H   0  0  0  0  0  0  0  0  0  0  0  0
   18.1247    0.2417   10.4426 H   0  0  0  0  0  0  0  0  0  0  0  0
   19.2158   -1.9633    9.9770 H   0  0  0  0  0  0  0  0  0  0  0  0
   18.9455   -2.9700    7.7294 H   0  0  0  0  0  0  0  0  0  0  0  0
   17.4184   -2.4752    1.1822 H   0  0  0  0  0  0  0  0  0  0  0  0
   18.4157   -3.6504   -0.7468 H   0  0  0  0  0  0  0  0  0  0  0  0
   20.9292   -5.8974    1.8971 H   0  0  0  0  0  0  0  0  0  0  0  0
  1  2  1  0
  2 29  1  0
  2  3  2  0
  3  4  1  0
  3 25  1  0
  4  5  1  0
  4 30  1  0
  5  6  2  0
  5  7  1  0
  7  8  1  0
  7 31  1  0
  8 24  1  0
  8  9  2  0
  9 10  1  0
  9 21  1  0
 10 11  1  0
 11 20  1  0
 11 12  2  0
 13 12  1  1
 12 17  1  0
 13 14  1  0
 13 15  1  0
 13 16  1  0
 14 32  1  1
 14 33  1  0
 14 34  1  0
 15 35  1  6
 15 36  1  0
 15 37  1  0
 16 38  1  6
 16 39  1  0
 16 40  1  0
 17 18  2  0
 17 41  1  0
 18 19  1  0
 18 42  1  0
 19 20  2  0
 19 43  1  0
 20 44  1  0
 21 22  2  0
 22 23  1  0
 22 45  1  0
 23 24  2  0
 23 46  1  0
 24 47  1  0
 25 26  2  0
 25 48  1  0
 26 27  1  0
 26 49  1  0
 27 28  1  0
 27 29  2  0
 29 50  1  0
M  END
