17
     RDKit          3D

 62 64  0  0  1  0  0  0  0  0999 V2000
   19.5261   -2.9123    5.3779 O   0  0  0  0  0  0  0  0  0  0  0  0
   18.4390   -2.5345    4.9471 C   0  0  0  0  0  0  0  0  0  0  0  0
   17.5538   -1.8182    5.6582 N   0  0  0  0  0  0  0  0  0  0  0  0
   17.7191   -1.3355    6.9799 C   0  0  0  0  0  0  0  0  0  0  0  0
   17.1007   -0.1223    7.3559 C   0  0  0  0  0  0  0  0  0  0  0  0
   16.2815    0.5306    6.4511 O   0  0  0  0  0  0  0  0  0  0  0  0
   15.3727    1.4970    6.8310 C   0  0  0  0  0  0  0  0  0  0  0  0
   15.2945    2.7345    6.1300 C   0  0  0  0  0  0  0  0  0  0  0  0
   16.2414    3.0524    4.9448 C   0  0  2  0  0  0  0  0  0  0  0  0
   17.7042    3.0938    5.4369 C   0  0  1  0  0  0  0  0  0  0  0  0
   15.9530    4.4287    4.2885 C   0  0  1  0  0  0  0  0  0  0  0  0
   16.0857    2.0004    3.8206 C   0  0  1  0  0  0  0  0  0  0  0  0
   14.3217    3.6753    6.5555 C   0  0  0  0  0  0  0  0  0  0  0  0
   13.4516    3.4054    7.6254 C   0  0  0  0  0  0  0  0  0  0  0  0
   13.5229    2.1734    8.2854 C   0  0  0  0  0  0  0  0  0  0  0  0
   14.4621    1.2179    7.8752 C   0  0  0  0  0  0  0  0  0  0  0  0
   17.2748    0.4314    8.5837 N   0  0  0  0  0  0  0  0  0  0  0  0
   18.0372   -0.2168    9.4884 C   0  0  0  0  0  0  0  0  0  0  0  0
   18.6441   -1.4580    9.2265 C   0  0  0  0  0  0  0  0  0  0  0  0
   18.4805   -2.0250    7.9538 C   0  0  0  0  0  0  0  0  0  0  0  0
   17.9849   -2.7617    3.7044 N   0  0  0  0  0  0  0  0  0  0  0  0
   18.6187   -3.4803    2.6615 C   0  0  0  0  0  0  0  0  0  0  0  0
   18.2013   -3.2118    1.3443 C   0  0  0  0  0  0  0  0  0  0  0  0
   18.7899   -3.9000    0.2633 C   0  0  0  0  0  0  0  0  0  0  0  0
   19.7867   -4.8851    0.4867 C   0  0  0  0  0  0  0  0  0  0  0  0
   20.3463   -5.7269   -0.6753 C   0  0  2  0  0  0  0  0  0  0  0  0
   19.2268   -6.5968   -1.2744 C   0  0  1  0  0  0  0  0  0  0  0  0
   21.4560   -6.7125   -0.2394 C   0  0  1  0  0  0  0  0  0  0  0  0
   20.9496   -4.7973   -1.7493 C   0  0  1  0  0  0  0  0  0  0  0  0
   20.2004   -5.1281    1.8130 C   0  0  0  0  0  0  0  0  0  0  0  0
   19.6159   -4.4514    2.8862 C   0  0  0  0  0  0  0  0  0  0  0  0
   16.7506   -1.4599    5.1555 H   0  0  0  0  0  0  0  0  0  0  0  0
   18.0446    2.1397    5.8319 H   0  0  0  0  0  0  0  0  0  0  0  0
   18.3851    3.3578    4.6299 H   0  0  0  0  0  0  0  0  0  0  0  0
   17.8364    3.8341    6.2256 H   0  0  0  0  0  0  0  0  0  0  0  0
   14.9379    4.4759    3.8919 H   0  0  0  0  0  0  0  0  0  0  0  0
   16.0817    5.2465    4.9987 H   0  0  0  0  0  0  0  0  0  0  0  0
   16.6383    4.6218    3.4617 H   0  0  0  0  0  0  0  0  0  0  0  0
   15.0450    1.9348    3.4998 H   0  0  0  0  0  0  0  0  0  0  0  0
   16.6846    2.2631    2.9454 H   0  0  0  0  0  0  0  0  0  0  0  0
   16.3984    0.9987    4.1178 H   0  0  0  0  0  0  0  0  0  0  0  0
   14.2086    4.6330    6.0701 H   0  0  0  0  0  0  0  0  0  0  0  0
   12.7257    4.1452    7.9318 H   0  0  0  0  0  0  0  0  0  0  0  0
   12.8435    1.9500    9.0935 H   0  0  0  0  0  0  0  0  0  0  0  0
   14.4919    0.2638    8.3802 H   0  0  0  0  0  0  0  0  0  0  0  0
   18.1422    0.2552   10.4534 H   0  0  0  0  0  0  0  0  0  0  0  0
   19.2227   -1.9590    9.9890 H   0  0  0  0  0  0  0  0  0  0  0  0
   18.9436   -2.9741    7.7447 H   0  0  0  0  0  0  0  0  0  0  0  0
   17.1180   -2.2997    3.4569 H   0  0  0  0  0  0  0  0  0  0  0  0
   17.4252   -2.4867    1.1533 H   0  0  0  0  0  0  0  0  0  0  0  0
   18.4365   -3.6992   -0.7389 H   0  0  0  0  0  0  0  0  0  0  0  0
   18.3670   -6.0086   -1.5964 H   0  0  0  0  0  0  0  0  0  0  0  0
   19.5696   -7.1548   -2.1461 H   0  0  0  0  0  0  0  0  0  0  0  0
   18.8658   -7.3276   -0.5504 H   0  0  0  0  0  0  0  0  0  0  0  0
   22.3051   -6.1912    0.2043 H   0  0  0  0  0  0  0  0  0  0  0  0
   21.0894   -7.4469    0.4802 H   0  0  0  0  0  0  0  0  0  0  0  0
   21.8440   -7.2762   -1.0883 H   0  0  0  0  0  0  0  0  0  0  0  0
   21.7638   -4.1994   -1.3393 H   0  0  0  0  0  0  0  0  0  0  0  0
   21.3563   -5.3642   -2.5838 H   0  0  0  0  0  0  0  0  0  0  0  0
   20.2139   -4.1062   -2.1630 H   0  0  0  0  0  0  0  0  0  0  0  0
   20.9502   -5.8633    2.0559 H   0  0  0  0  0  0  0  0  0  0  0  0
   19.9473   -4.7105    3.8851 H   0  0  0  0  0  0  0  0  0  0  0  0
  1  2  2  0
  2  3  1  0
  2 21  1  0
  3  4  1  0
  3 32  1  0
  4 20  1  0
  4  5  2  0
  5  6  1  0
  5 17  1  0
  6  7  1  0
  7 16  1  0
  7  8  2  0
  9  8  1  1
  8 13  1  0
  9 10  1  0
  9 11  1  0
  9 12  1  0
 10 33  1  1
 10 34  1  0
 10 35  1  0
 11 36  1  6
 11 37  1  0
 11 38  1  0
 12 39  1  6
 12 40  1  0
 12 41  1  0
 13 14  2  0
 13 42  1  0
 14 15  1  0
 14 43  1  0
 15 16  2  0
 15 44  1  0
 16 45  1  0
 17 18  2  0
 18 19  1  0
 18 46  1  0
 19 20  2  0
 19 47  1  0
 20 48  1  0
 21 22  1  0
 21 49  1  0
 22 31  1  0
 22 23  2  0
 23 24  1  0
 23 50  1  0
 24 25  2  0
 24 51  1  0
 26 25  1  1
 25 30  1  0
 26 27  1  0
 26 28  1  0
 26 29  1  0
 27 52  1  6
 27 53  1  0
 27 54  1  0
 28 55  1  1
 28 56  1  0
 28 57  1  0
 29 58  1  1
 29 59  1  0
 29 60  1  0
 30 31  2  0
 30 61  1  0
 31 62  1  0
M  END
