13
     RDKit          3D

 53 55  0  0  1  0  0  0  0  0999 V2000
   16.3473    0.4730    6.0452 S   0  0  0  0  0  0  0  0  0  0  0  0
   17.2227   -0.2693    7.3378 C   0  0  0  0  0  0  0  0  0  0  0  0
   17.8239   -1.4871    7.0316 C   0  0  0  0  0  0  0  0  0  0  0  0
   17.6083   -2.0144    5.7354 N   0  0  0  0  0  0  0  0  0  0  0  0
   18.4975   -2.6165    4.9587 C   0  0  0  0  0  0  0  0  0  0  0  0
   19.6010   -2.9682    5.3531 O   0  0  0  0  0  0  0  0  0  0  0  0
   18.0264   -2.7779    3.7160 N   0  0  0  0  0  0  0  0  0  0  0  0
   18.6254   -3.4915    2.6543 C   0  0  0  0  0  0  0  0  0  0  0  0
   18.1792   -3.2183    1.3543 C   0  0  0  0  0  0  0  0  0  0  0  0
   18.7364   -3.8915    0.2558 C   0  0  0  0  0  0  0  0  0  0  0  0
   19.7204   -4.8721    0.4490 C   0  0  0  0  0  0  0  0  0  0  0  0
   20.2296   -5.6795   -0.7254 C   0  0  1  0  0  0  0  0  0  0  0  0
   20.1687   -5.1484    1.7476 C   0  0  0  0  0  0  0  0  0  0  0  0
   19.6217   -4.4696    2.8457 C   0  0  0  0  0  0  0  0  0  0  0  0
   18.5629   -2.1193    8.0405 C   0  0  0  0  0  0  0  0  0  0  0  0
   18.6667   -1.4806    9.2856 C   0  0  0  0  0  0  0  0  0  0  0  0
   18.0339   -0.2406    9.4749 C   0  0  0  0  0  0  0  0  0  0  0  0
   17.3155    0.3703    8.5160 N   0  0  0  0  0  0  0  0  0  0  0  0
   15.3227    1.6695    6.7321 C   0  0  0  0  0  0  0  0  0  0  0  0
   15.2426    2.9431    6.1252 C   0  0  0  0  0  0  0  0  0  0  0  0
   16.1520    3.3879    4.9469 C   0  0  2  0  0  0  0  0  0  0  0  0
   15.9124    4.8573    4.5577 C   0  0  1  0  0  0  0  0  0  0  0  0
   15.8698    2.5957    3.6536 C   0  0  1  0  0  0  0  0  0  0  0  0
   17.6462    3.3161    5.3243 C   0  0  1  0  0  0  0  0  0  0  0  0
   14.2524    3.8102    6.6315 C   0  0  0  0  0  0  0  0  0  0  0  0
   13.4081    3.4352    7.6843 C   0  0  0  0  0  0  0  0  0  0  0  0
   13.5205    2.1741    8.2670 C   0  0  0  0  0  0  0  0  0  0  0  0
   14.4735    1.2832    7.7824 C   0  0  0  0  0  0  0  0  0  0  0  0
   16.7994   -1.6479    5.2542 H   0  0  0  0  0  0  0  0  0  0  0  0
   17.1472   -2.3300    3.5012 H   0  0  0  0  0  0  0  0  0  0  0  0
   17.4068   -2.4832    1.1907 H   0  0  0  0  0  0  0  0  0  0  0  0
   18.3711   -3.6779   -0.7380 H   0  0  0  0  0  0  0  0  0  0  0  0
   20.5206   -5.0167   -1.5397 H   0  0  0  0  0  0  0  0  0  0  0  0
   21.0965   -6.2816   -0.4528 H   0  0  0  0  0  0  0  0  0  0  0  0
   19.4457   -6.3413   -1.0939 H   0  0  0  0  0  0  0  0  0  0  0  0
   20.9150   -5.9123    1.9116 H   0  0  0  0  0  0  0  0  0  0  0  0
   19.9780   -4.7409    3.8266 H   0  0  0  0  0  0  0  0  0  0  0  0
   19.0392   -3.0747    7.8760 H   0  0  0  0  0  0  0  0  0  0  0  0
   19.2253   -1.9371   10.0902 H   0  0  0  0  0  0  0  0  0  0  0  0
   18.1063    0.2726   10.4221 H   0  0  0  0  0  0  0  0  0  0  0  0
   16.1075    5.5336    5.3928 H   0  0  0  0  0  0  0  0  0  0  0  0
   16.5692    5.1668    3.7436 H   0  0  0  0  0  0  0  0  0  0  0  0
   14.8942    5.0308    4.2058 H   0  0  0  0  0  0  0  0  0  0  0  0
   16.1027    1.5363    3.6951 H   0  0  0  0  0  0  0  0  0  0  0  0
   14.8231    2.6808    3.3634 H   0  0  0  0  0  0  0  0  0  0  0  0
   16.4620    2.9835    2.8250 H   0  0  0  0  0  0  0  0  0  0  0  0
   18.0572    2.3113    5.4035 H   0  0  0  0  0  0  0  0  0  0  0  0
   18.2633    3.8119    4.5737 H   0  0  0  0  0  0  0  0  0  0  0  0
   17.8349    3.8209    6.2748 H   0  0  0  0  0  0  0  0  0  0  0  0
   14.0913    4.8014    6.2378 H   0  0  0  0  0  0  0  0  0  0  0  0
   12.6604    4.1251    8.0497 H   0  0  0  0  0  0  0  0  0  0  0  0
   12.8575    1.8830    9.0682 H   0  0  0  0  0  0  0  0  0  0  0  0
   14.5255    0.2897    8.2030 H   0  0  0  0  0  0  0  0  0  0  0  0
  1  2  1  0
  1 19  1  0
  2 18  1  0
  2  3  2  0
  3  4  1  0
  3 15  1  0
  4  5  1  0
  4 29  1  0
  5  6  2  0
  5  7  1  0
  7  8  1  0
  7 30  1  0
  8 14  1  0
  8  9  2  0
  9 10  1  0
  9 31  1  0
 10 11  2  0
 10 32  1  0
 11 12  1  0
 11 13  1  0
 12 33  1  6
 12 34  1  0
 12 35  1  0
 13 14  2  0
 13 36  1  0
 14 37  1  0
 15 16  2  0
 15 38  1  0
 16 17  1  0
 16 39  1  0
 17 18  2  0
 17 40  1  0
 19 28  1  0
 19 20  2  0
 21 20  1  1
 20 25  1  0
 21 22  1  0
 21 23  1  0
 21 24  1  0
 22 41  1  1
 22 42  1  0
 22 43  1  0
 23 44  1  1
 23 45  1  0
 23 46  1  0
 24 47  1  1
 24 48  1  0
 24 49  1  0
 25 26  2  0
 25 50  1  0
 26 27  1  0
 26 51  1  0
 27 28  2  0
 27 52  1  0
 28 53  1  0
M  END
