16
     RDKit          3D

 54 56  0  0  1  0  0  0  0  0999 V2000
   18.6545   -6.6697   -1.3610 F   0  0  0  0  0  0  0  0  0  0  0  0
   19.9211   -6.6983   -0.9479 C   0  0  2  0  0  0  0  0  0  0  0  0
   20.6689   -7.1287   -1.9616 F   0  0  0  0  0  0  0  0  0  0  0  0
   20.0594   -7.5693    0.0543 F   0  0  0  0  0  0  0  0  0  0  0  0
   20.3868   -5.3970   -0.5975 O   0  0  0  0  0  0  0  0  0  0  0  0
   19.7739   -4.8032    0.4793 C   0  0  0  0  0  0  0  0  0  0  0  0
   18.7621   -3.8653    0.2723 C   0  0  0  0  0  0  0  0  0  0  0  0
   18.1784   -3.2208    1.3607 C   0  0  0  0  0  0  0  0  0  0  0  0
   20.1976   -5.0990    1.7747 C   0  0  0  0  0  0  0  0  0  0  0  0
   19.6151   -4.4567    2.8637 C   0  0  0  0  0  0  0  0  0  0  0  0
   18.6142   -3.4921    2.6594 C   0  0  0  0  0  0  0  0  0  0  0  0
   17.9856   -2.7758    3.6982 N   0  0  0  0  0  0  0  0  0  0  0  0
   18.4400   -2.5393    4.9471 C   0  0  0  0  0  0  0  0  0  0  0  0
   19.5343   -2.9148    5.3714 O   0  0  0  0  0  0  0  0  0  0  0  0
   17.5545   -1.8128    5.6619 N   0  0  0  0  0  0  0  0  0  0  0  0
   17.7194   -1.3355    6.9799 C   0  0  0  0  0  0  0  0  0  0  0  0
   18.4729   -2.0161    7.9534 C   0  0  0  0  0  0  0  0  0  0  0  0
   18.6358   -1.4635    9.2228 C   0  0  0  0  0  0  0  0  0  0  0  0
   18.0364   -0.2360    9.4949 C   0  0  0  0  0  0  0  0  0  0  0  0
   17.2770    0.4239    8.5888 N   0  0  0  0  0  0  0  0  0  0  0  0
   17.0983   -0.1292    7.3523 C   0  0  0  0  0  0  0  0  0  0  0  0
   16.2773    0.5332    6.4507 O   0  0  0  0  0  0  0  0  0  0  0  0
   15.3664    1.5054    6.8298 C   0  0  0  0  0  0  0  0  0  0  0  0
   14.4655    1.2325    7.8687 C   0  0  0  0  0  0  0  0  0  0  0  0
   13.5290    2.1777    8.2697 C   0  0  0  0  0  0  0  0  0  0  0  0
   13.4580    3.3963    7.6126 C   0  0  0  0  0  0  0  0  0  0  0  0
   14.3223    3.6679    6.5565 C   0  0  0  0  0  0  0  0  0  0  0  0
   15.2918    2.7350    6.1363 C   0  0  0  0  0  0  0  0  0  0  0  0
   16.2464    3.0573    4.9486 C   0  0  1  0  0  0  0  0  0  0  0  0
   16.0912    1.9989    3.8291 C   0  0  1  0  0  0  0  0  0  0  0  0
   15.9564    4.4342    4.2873 C   0  0  1  0  0  0  0  0  0  0  0  0
   17.7163    3.0963    5.4360 C   0  0  1  0  0  0  0  0  0  0  0  0
   18.4368   -3.6337   -0.7305 H   0  0  0  0  0  0  0  0  0  0  0  0
   17.3986   -2.4951    1.1897 H   0  0  0  0  0  0  0  0  0  0  0  0
   20.9818   -5.8241    1.9362 H   0  0  0  0  0  0  0  0  0  0  0  0
   19.9548   -4.7250    3.8515 H   0  0  0  0  0  0  0  0  0  0  0  0
   17.1202   -2.3203    3.4416 H   0  0  0  0  0  0  0  0  0  0  0  0
   16.7552   -1.4430    5.1651 H   0  0  0  0  0  0  0  0  0  0  0  0
   18.9365   -2.9687    7.7446 H   0  0  0  0  0  0  0  0  0  0  0  0
   19.2190   -1.9736    9.9739 H   0  0  0  0  0  0  0  0  0  0  0  0
   18.1435    0.2306   10.4627 H   0  0  0  0  0  0  0  0  0  0  0  0
   14.4939    0.2815    8.3751 H   0  0  0  0  0  0  0  0  0  0  0  0
   12.8589    1.9621    9.0859 H   0  0  0  0  0  0  0  0  0  0  0  0
   12.7260    4.1280    7.9187 H   0  0  0  0  0  0  0  0  0  0  0  0
   14.2077    4.6228    6.0721 H   0  0  0  0  0  0  0  0  0  0  0  0
   16.6230    2.2856    2.9204 H   0  0  0  0  0  0  0  0  0  0  0  0
   16.4897    1.0260    4.1097 H   0  0  0  0  0  0  0  0  0  0  0  0
   15.0423    1.8627    3.5641 H   0  0  0  0  0  0  0  0  0  0  0  0
   16.6312    4.6315    3.4528 H   0  0  0  0  0  0  0  0  0  0  0  0
   14.9419    4.4873    3.8886 H   0  0  0  0  0  0  0  0  0  0  0  0
   16.0857    5.2587    4.9901 H   0  0  0  0  0  0  0  0  0  0  0  0
   18.3988    3.3614    4.6271 H   0  0  0  0  0  0  0  0  0  0  0  0
   17.8531    3.8344    6.2277 H   0  0  0  0  0  0  0  0  0  0  0  0
   18.0583    2.1386    5.8251 H   0  0  0  0  0  0  0  0  0  0  0  0
  2  1  1  6
  2  3  1  0
  2  4  1  0
  2  5  1  0
  5  6  1  0
  6  7  1  0
  6  9  2  0
  7  8  2  0
  7 33  1  0
  8 11  1  0
  8 34  1  0
  9 10  1  0
  9 35  1  0
 10 11  2  0
 10 36  1  0
 11 12  1  0
 12 13  1  0
 12 37  1  0
 13 14  2  0
 13 15  1  0
 15 16  1  0
 15 38  1  0
 16 17  2  0
 16 21  1  0
 17 18  1  0
 17 39  1  0
 18 19  2  0
 18 40  1  0
 19 20  1  0
 19 41  1  0
 20 21  2  0
 21 22  1  0
 22 23  1  0
 23 24  1  0
 23 28  2  0
 24 25  2  0
 24 42  1  0
 25 26  1  0
 25 43  1  0
 26 27  2  0
 26 44  1  0
 27 28  1  0
 27 45  1  0
 29 28  1  1
 29 30  1  0
 29 31  1  0
 29 32  1  0
 30 46  1  6
 30 47  1  0
 30 48  1  0
 31 49  1  6
 31 50  1  0
 31 51  1  0
 32 52  1  6
 32 53  1  0
 32 54  1  0
M  END
