11f
     RDKit          3D

 41 43  0  0  1  0  0  0  0  0999 V2000
   15.9906    4.2153    4.4571 F   0  0  0  0  0  0  0  0  0  0  0  0
   16.2216    3.0180    4.9842 C   0  0  2  0  0  0  0  0  0  0  0  0
   17.4828    2.9752    5.3900 F   0  0  0  0  0  0  0  0  0  0  0  0
   16.0422    2.1075    4.0353 F   0  0  0  0  0  0  0  0  0  0  0  0
   15.2937    2.7250    6.1448 C   0  0  0  0  0  0  0  0  0  0  0  0
   15.3773    1.4941    6.8296 C   0  0  0  0  0  0  0  0  0  0  0  0
   16.2943    0.5420    6.4385 O   0  0  0  0  0  0  0  0  0  0  0  0
   17.0956   -0.1252    7.3476 C   0  0  0  0  0  0  0  0  0  0  0  0
   17.7104   -1.3361    6.9753 C   0  0  0  0  0  0  0  0  0  0  0  0
   17.5439   -1.8168    5.6542 N   0  0  0  0  0  0  0  0  0  0  0  0
   18.4289   -2.5272    4.9397 C   0  0  0  0  0  0  0  0  0  0  0  0
   19.5337   -2.8418    5.3669 O   0  0  0  0  0  0  0  0  0  0  0  0
   17.9845   -2.7760    3.7000 N   0  0  0  0  0  0  0  0  0  0  0  0
   18.6163   -3.4959    2.6574 C   0  0  0  0  0  0  0  0  0  0  0  0
   19.5943   -4.5014    2.8405 C   0  0  0  0  0  0  0  0  0  0  0  0
   19.9584   -4.9431    4.0592 F   0  0  0  0  0  0  0  0  0  0  0  0
   20.1727   -5.1426    1.7369 C   0  0  0  0  0  0  0  0  0  0  0  0
   19.7520   -4.8336    0.4415 C   0  0  0  0  0  0  0  0  0  0  0  0
   20.2749   -5.4966   -0.6128 F   0  0  0  0  0  0  0  0  0  0  0  0
   18.7555   -3.8666    0.2516 C   0  0  0  0  0  0  0  0  0  0  0  0
   18.1877   -3.2090    1.3535 C   0  0  0  0  0  0  0  0  0  0  0  0
   18.4660   -2.0236    7.9448 C   0  0  0  0  0  0  0  0  0  0  0  0
   18.6301   -1.4633    9.2157 C   0  0  0  0  0  0  0  0  0  0  0  0
   18.0266   -0.2278    9.4756 C   0  0  0  0  0  0  0  0  0  0  0  0
   17.2686    0.4235    8.5728 N   0  0  0  0  0  0  0  0  0  0  0  0
   14.4674    1.2213    7.8673 C   0  0  0  0  0  0  0  0  0  0  0  0
   13.5216    2.1691    8.2650 C   0  0  0  0  0  0  0  0  0  0  0  0
   13.4527    3.3954    7.6051 C   0  0  0  0  0  0  0  0  0  0  0  0
   14.3302    3.6695    6.5465 C   0  0  0  0  0  0  0  0  0  0  0  0
   16.7421   -1.4635    5.1565 H   0  0  0  0  0  0  0  0  0  0  0  0
   17.1144   -2.3340    3.4505 H   0  0  0  0  0  0  0  0  0  0  0  0
   20.9150   -5.9110    1.8954 H   0  0  0  0  0  0  0  0  0  0  0  0
   18.4218   -3.6351   -0.7483 H   0  0  0  0  0  0  0  0  0  0  0  0
   17.4270   -2.4618    1.1847 H   0  0  0  0  0  0  0  0  0  0  0  0
   18.9266   -2.9776    7.7343 H   0  0  0  0  0  0  0  0  0  0  0  0
   19.2111   -1.9667    9.9736 H   0  0  0  0  0  0  0  0  0  0  0  0
   18.1475    0.2445   10.4396 H   0  0  0  0  0  0  0  0  0  0  0  0
   14.4982    0.2699    8.3739 H   0  0  0  0  0  0  0  0  0  0  0  0
   12.8383    1.9431    9.0720 H   0  0  0  0  0  0  0  0  0  0  0  0
   12.7107    4.1235    7.8991 H   0  0  0  0  0  0  0  0  0  0  0  0
   14.2505    4.6187    6.0391 H   0  0  0  0  0  0  0  0  0  0  0  0
  2  1  1  6
  2  3  1  0
  2  4  1  0
  2  5  1  0
  5 29  1  0
  5  6  2  0
  6  7  1  0
  6 26  1  0
  7  8  1  0
  8 25  1  0
  8  9  2  0
  9 10  1  0
  9 22  1  0
 10 11  1  0
 10 30  1  0
 11 12  2  0
 11 13  1  0
 13 14  1  0
 13 31  1  0
 14 21  1  0
 14 15  2  0
 15 16  1  0
 15 17  1  0
 17 18  2  0
 17 32  1  0
 18 19  1  0
 18 20  1  0
 20 21  2  0
 20 33  1  0
 21 34  1  0
 22 23  2  0
 22 35  1  0
 23 24  1  0
 23 36  1  0
 24 25  2  0
 24 37  1  0
 26 27  2  0
 26 38  1  0
 27 28  1  0
 27 39  1  0
 28 29  2  0
 28 40  1  0
 29 41  1  0
M  END
