19
     RDKit          3D

 51 53  0  0  1  0  0  0  0  0999 V2000
   19.0618   -6.4944   -1.5696 F   0  0  0  0  0  0  0  0  0  0  0  0
   20.2621   -6.6252   -0.9709 C   0  0  2  0  0  0  0  0  0  0  0  0
   21.1195   -7.0688   -1.9175 F   0  0  0  0  0  0  0  0  0  0  0  0
   20.1142   -7.5387    0.0092 F   0  0  0  0  0  0  0  0  0  0  0  0
   20.6362   -5.4426   -0.4568 O   0  0  0  0  0  0  0  0  0  0  0  0
   20.0209   -4.9221    0.6512 C   0  0  0  0  0  0  0  0  0  0  0  0
   19.0275   -4.0040    0.3312 C   0  0  0  0  0  0  0  0  0  0  0  0
   18.3583   -3.3002    1.3254 C   0  0  0  0  0  0  0  0  0  0  0  0
   18.6395   -3.5175    2.6827 C   0  0  0  0  0  0  0  0  0  0  0  0
   17.9888   -2.7643    3.6914 N   0  0  0  0  0  0  0  0  0  0  0  0
   18.4251   -2.5213    4.9396 C   0  0  0  0  0  0  0  0  0  0  0  0
   19.5156   -2.8722    5.3745 O   0  0  0  0  0  0  0  0  0  0  0  0
   17.5406   -1.8184    5.6550 N   0  0  0  0  0  0  0  0  0  0  0  0
   17.7128   -1.3340    6.9730 C   0  0  0  0  0  0  0  0  0  0  0  0
   17.0929   -0.1284    7.3501 C   0  0  0  0  0  0  0  0  0  0  0  0
   16.2792    0.5300    6.4487 O   0  0  0  0  0  0  0  0  0  0  0  0
   15.3756    1.4933    6.8320 C   0  0  0  0  0  0  0  0  0  0  0  0
   15.2982    2.7220    6.1393 C   0  0  0  0  0  0  0  0  0  0  0  0
   16.2281    3.0400    4.9759 C   0  0  2  0  0  0  0  0  0  0  0  0
   16.0542    2.0563    3.8152 C   0  0  1  0  0  0  0  0  0  0  0  0
   17.6914    3.1197    5.4207 C   0  0  1  0  0  0  0  0  0  0  0  0
   14.3394    3.6693    6.5449 C   0  0  0  0  0  0  0  0  0  0  0  0
   13.4591    3.4027    7.6052 C   0  0  0  0  0  0  0  0  0  0  0  0
   13.5238    2.1752    8.2674 C   0  0  0  0  0  0  0  0  0  0  0  0
   14.4635    1.2213    7.8673 C   0  0  0  0  0  0  0  0  0  0  0  0
   17.2717    0.4266    8.5683 N   0  0  0  0  0  0  0  0  0  0  0  0
   18.0276   -0.2236    9.4715 C   0  0  0  0  0  0  0  0  0  0  0  0
   18.6299   -1.4613    9.2165 C   0  0  0  0  0  0  0  0  0  0  0  0
   18.4695   -2.0197    7.9436 C   0  0  0  0  0  0  0  0  0  0  0  0
   19.6274   -4.4641    3.0251 C   0  0  0  0  0  0  0  0  0  0  0  0
   20.3118   -5.1776    2.0140 C   0  0  0  0  0  0  0  0  0  0  0  0
   18.8027   -3.8008   -0.7054 H   0  0  0  0  0  0  0  0  0  0  0  0
   17.6551   -2.5547    0.9949 H   0  0  0  0  0  0  0  0  0  0  0  0
   17.1170   -2.3314    3.4272 H   0  0  0  0  0  0  0  0  0  0  0  0
   16.7380   -1.4703    5.1559 H   0  0  0  0  0  0  0  0  0  0  0  0
   15.9593    4.0265    4.6001 H   0  0  0  0  0  0  0  0  0  0  0  0
   15.0122    2.0135    3.5030 H   0  0  0  0  0  0  0  0  0  0  0  0
   16.6346    2.3669    2.9457 H   0  0  0  0  0  0  0  0  0  0  0  0
   16.3677    1.0426    4.0594 H   0  0  0  0  0  0  0  0  0  0  0  0
   17.8158    3.8478    6.2232 H   0  0  0  0  0  0  0  0  0  0  0  0
   18.0760    2.1674    5.7810 H   0  0  0  0  0  0  0  0  0  0  0  0
   18.3317    3.4348    4.5964 H   0  0  0  0  0  0  0  0  0  0  0  0
   14.2703    4.6170    6.0342 H   0  0  0  0  0  0  0  0  0  0  0  0
   12.7253    4.1392    7.9016 H   0  0  0  0  0  0  0  0  0  0  0  0
   12.8325    1.9584    9.0680 H   0  0  0  0  0  0  0  0  0  0  0  0
   14.4859    0.2642    8.3727 H   0  0  0  0  0  0  0  0  0  0  0  0
   18.1314    0.2510   10.4359 H   0  0  0  0  0  0  0  0  0  0  0  0
   19.2116   -1.9667    9.9759 H   0  0  0  0  0  0  0  0  0  0  0  0
   18.9201   -2.9781    7.7402 H   0  0  0  0  0  0  0  0  0  0  0  0
   19.8781   -4.6451    4.0616 H   0  0  0  0  0  0  0  0  0  0  0  0
   21.0777   -5.8880    2.2944 H   0  0  0  0  0  0  0  0  0  0  0  0
  2  1  1  6
  2  3  1  0
  2  4  1  0
  2  5  1  0
  5  6  1  0
  6 31  1  0
  6  7  2  0
  7  8  1  0
  7 32  1  0
  8  9  2  0
  8 33  1  0
  9 10  1  0
  9 30  1  0
 10 11  1  0
 10 34  1  0
 11 12  2  0
 11 13  1  0
 13 14  1  0
 13 35  1  0
 14 29  1  0
 14 15  2  0
 15 16  1  0
 15 26  1  0
 16 17  1  0
 17 25  1  0
 17 18  2  0
 18 19  1  0
 18 22  1  0
 19 20  1  0
 19 21  1  0
 19 36  1  6
 20 37  1  6
 20 38  1  0
 20 39  1  0
 21 40  1  1
 21 41  1  0
 21 42  1  0
 22 23  2  0
 22 43  1  0
 23 24  1  0
 23 44  1  0
 24 25  2  0
 24 45  1  0
 25 46  1  0
 26 27  2  0
 27 28  1  0
 27 47  1  0
 28 29  2  0
 28 48  1  0
 29 49  1  0
 30 31  2  0
 30 50  1  0
 31 51  1  0
M  END
