12
     RDKit          3D

 53 55  0  0  1  0  0  0  0  0999 V2000
   19.5168   -2.9147    5.3657 O   0  0  0  0  0  0  0  0  0  0  0  0
   18.4291   -2.5392    4.9400 C   0  0  0  0  0  0  0  0  0  0  0  0
   17.5484   -1.8209    5.6542 N   0  0  0  0  0  0  0  0  0  0  0  0
   17.7150   -1.3371    6.9739 C   0  0  0  0  0  0  0  0  0  0  0  0
   17.0927   -0.1305    7.3515 C   0  0  0  0  0  0  0  0  0  0  0  0
   16.2818    0.5300    6.4483 O   0  0  0  0  0  0  0  0  0  0  0  0
   15.3785    1.4979    6.8281 C   0  0  0  0  0  0  0  0  0  0  0  0
   15.2992    2.7299    6.1290 C   0  0  0  0  0  0  0  0  0  0  0  0
   16.2396    3.0479    4.9473 C   0  0  2  0  0  0  0  0  0  0  0  0
   17.6982    3.0879    5.4278 C   0  0  1  0  0  0  0  0  0  0  0  0
   15.9482    4.4166    4.2958 C   0  0  1  0  0  0  0  0  0  0  0  0
   16.0850    1.9984    3.8305 C   0  0  1  0  0  0  0  0  0  0  0  0
   14.3261    3.6664    6.5495 C   0  0  0  0  0  0  0  0  0  0  0  0
   13.4545    3.3956    7.6094 C   0  0  0  0  0  0  0  0  0  0  0  0
   13.5215    2.1660    8.2654 C   0  0  0  0  0  0  0  0  0  0  0  0
   14.4656    1.2213    7.8632 C   0  0  0  0  0  0  0  0  0  0  0  0
   17.2707    0.4208    8.5736 N   0  0  0  0  0  0  0  0  0  0  0  0
   18.0261   -0.2305    9.4769 C   0  0  0  0  0  0  0  0  0  0  0  0
   18.6289   -1.4643    9.2172 C   0  0  0  0  0  0  0  0  0  0  0  0
   18.4707   -2.0247    7.9450 C   0  0  0  0  0  0  0  0  0  0  0  0
   17.9833   -2.7750    3.6985 N   0  0  0  0  0  0  0  0  0  0  0  0
   18.6140   -3.4891    2.6547 C   0  0  0  0  0  0  0  0  0  0  0  0
   19.6142   -4.4598    2.8570 C   0  0  0  0  0  0  0  0  0  0  0  0
   20.1781   -5.1355    1.7643 C   0  0  0  0  0  0  0  0  0  0  0  0
   19.7266   -4.8763    0.4629 C   0  0  0  0  0  0  0  0  0  0  0  0
   20.2430   -5.6897   -0.7029 C   0  0  1  0  0  0  0  0  0  0  0  0
   18.7396   -3.8999    0.2589 C   0  0  0  0  0  0  0  0  0  0  0  0
   18.1773   -3.2220    1.3511 C   0  0  0  0  0  0  0  0  0  0  0  0
   16.7510   -1.4613    5.1542 H   0  0  0  0  0  0  0  0  0  0  0  0
   18.0498    2.1224    5.7916 H   0  0  0  0  0  0  0  0  0  0  0  0
   18.3744    3.3825    4.6237 H   0  0  0  0  0  0  0  0  0  0  0  0
   17.8261    3.8059    6.2400 H   0  0  0  0  0  0  0  0  0  0  0  0
   14.9354    4.4586    3.8922 H   0  0  0  0  0  0  0  0  0  0  0  0
   16.0736    5.2394    5.0012 H   0  0  0  0  0  0  0  0  0  0  0  0
   16.6265    4.6123    3.4634 H   0  0  0  0  0  0  0  0  0  0  0  0
   15.0426    1.9135    3.5177 H   0  0  0  0  0  0  0  0  0  0  0  0
   16.6700    2.2655    2.9494 H   0  0  0  0  0  0  0  0  0  0  0  0
   16.4187    1.0043    4.1209 H   0  0  0  0  0  0  0  0  0  0  0  0
   14.2092    4.6218    6.0663 H   0  0  0  0  0  0  0  0  0  0  0  0
   12.7183    4.1286    7.9070 H   0  0  0  0  0  0  0  0  0  0  0  0
   12.8363    1.9406    9.0689 H   0  0  0  0  0  0  0  0  0  0  0  0
   14.4869    0.2652    8.3662 H   0  0  0  0  0  0  0  0  0  0  0  0
   18.1362    0.2395   10.4432 H   0  0  0  0  0  0  0  0  0  0  0  0
   19.2056   -1.9674    9.9791 H   0  0  0  0  0  0  0  0  0  0  0  0
   18.9309   -2.9789    7.7389 H   0  0  0  0  0  0  0  0  0  0  0  0
   17.1171   -2.3265    3.4457 H   0  0  0  0  0  0  0  0  0  0  0  0
   19.9601   -4.7204    3.8441 H   0  0  0  0  0  0  0  0  0  0  0  0
   20.9334   -5.8889    1.9399 H   0  0  0  0  0  0  0  0  0  0  0  0
   20.7203   -6.6086   -0.3627 H   0  0  0  0  0  0  0  0  0  0  0  0
   19.4235   -5.9634   -1.3687 H   0  0  0  0  0  0  0  0  0  0  0  0
   20.9720   -5.1124   -1.2720 H   0  0  0  0  0  0  0  0  0  0  0  0
   18.3817   -3.6942   -0.7386 H   0  0  0  0  0  0  0  0  0  0  0  0
   17.4049   -2.4883    1.1783 H   0  0  0  0  0  0  0  0  0  0  0  0
  1  2  2  0
  2  3  1  0
  2 21  1  0
  3  4  1  0
  3 29  1  0
  4 20  1  0
  4  5  2  0
  5  6  1  0
  5 17  1  0
  6  7  1  0
  7 16  1  0
  7  8  2  0
  9  8  1  1
  8 13  1  0
  9 10  1  0
  9 11  1  0
  9 12  1  0
 10 30  1  1
 10 31  1  0
 10 32  1  0
 11 33  1  6
 11 34  1  0
 11 35  1  0
 12 36  1  6
 12 37  1  0
 12 38  1  0
 13 14  2  0
 13 39  1  0
 14 15  1  0
 14 40  1  0
 15 16  2  0
 15 41  1  0
 16 42  1  0
 17 18  2  0
 18 19  1  0
 18 43  1  0
 19 20  2  0
 19 44  1  0
 20 45  1  0
 21 22  1  0
 21 46  1  0
 22 28  1  0
 22 23  2  0
 23 24  1  0
 23 47  1  0
 24 25  2  0
 24 48  1  0
 25 26  1  0
 25 27  1  0
 26 49  1  1
 26 50  1  0
 26 51  1  0
 27 28  2  0
 27 52  1  0
 28 53  1  0
M  END
