11e
     RDKit          3D

 44 46  0  0  1  0  0  0  0  0999 V2000
   19.9652   -4.9421    4.0560 F   0  0  0  0  0  0  0  0  0  0  0  0
   19.5987   -4.5017    2.8382 C   0  0  0  0  0  0  0  0  0  0  0  0
   18.6190   -3.4984    2.6562 C   0  0  0  0  0  0  0  0  0  0  0  0
   17.9861   -2.7758    3.6991 N   0  0  0  0  0  0  0  0  0  0  0  0
   18.4274   -2.5231    4.9383 C   0  0  0  0  0  0  0  0  0  0  0  0
   19.5281   -2.8462    5.3640 O   0  0  0  0  0  0  0  0  0  0  0  0
   17.5427   -1.8197    5.6562 N   0  0  0  0  0  0  0  0  0  0  0  0
   17.7132   -1.3363    6.9768 C   0  0  0  0  0  0  0  0  0  0  0  0
   17.0952   -0.1292    7.3524 C   0  0  0  0  0  0  0  0  0  0  0  0
   16.2978    0.5389    6.4445 O   0  0  0  0  0  0  0  0  0  0  0  0
   15.3850    1.4920    6.8385 C   0  0  0  0  0  0  0  0  0  0  0  0
   15.3068    2.7238    6.1609 C   0  0  0  0  0  0  0  0  0  0  0  0
   16.2780    3.0517    5.0507 C   0  0  1  0  0  0  0  0  0  0  0  0
   16.0019    2.2589    3.7784 C   0  0  1  0  0  0  0  0  0  0  0  0
   14.3409    3.6717    6.5433 C   0  0  0  0  0  0  0  0  0  0  0  0
   13.4604    3.4025    7.6006 C   0  0  0  0  0  0  0  0  0  0  0  0
   13.5195    2.1739    8.2605 C   0  0  0  0  0  0  0  0  0  0  0  0
   14.4644    1.2219    7.8660 C   0  0  0  0  0  0  0  0  0  0  0  0
   17.2692    0.4202    8.5753 N   0  0  0  0  0  0  0  0  0  0  0  0
   18.0225   -0.2310    9.4788 C   0  0  0  0  0  0  0  0  0  0  0  0
   18.6285   -1.4642    9.2180 C   0  0  0  0  0  0  0  0  0  0  0  0
   18.4686   -2.0254    7.9468 C   0  0  0  0  0  0  0  0  0  0  0  0
   18.1858   -3.2150    1.3541 C   0  0  0  0  0  0  0  0  0  0  0  0
   18.7490   -3.8762    0.2529 C   0  0  0  0  0  0  0  0  0  0  0  0
   19.7448   -4.8422    0.4392 C   0  0  0  0  0  0  0  0  0  0  0  0
   20.2521   -5.5172   -0.6159 F   0  0  0  0  0  0  0  0  0  0  0  0
   20.1715   -5.1445    1.7339 C   0  0  0  0  0  0  0  0  0  0  0  0
   17.1185   -2.3293    3.4504 H   0  0  0  0  0  0  0  0  0  0  0  0
   16.7406   -1.4671    5.1564 H   0  0  0  0  0  0  0  0  0  0  0  0
   16.2456    4.1224    4.8221 H   0  0  0  0  0  0  0  0  0  0  0  0
   17.2997    2.8503    5.3872 H   0  0  0  0  0  0  0  0  0  0  0  0
   16.7119    2.5093    2.9883 H   0  0  0  0  0  0  0  0  0  0  0  0
   16.0684    1.1852    3.9488 H   0  0  0  0  0  0  0  0  0  0  0  0
   14.9997    2.4684    3.3978 H   0  0  0  0  0  0  0  0  0  0  0  0
   14.2793    4.6164    6.0221 H   0  0  0  0  0  0  0  0  0  0  0  0
   12.7265    4.1382    7.8904 H   0  0  0  0  0  0  0  0  0  0  0  0
   12.8245    1.9550    9.0553 H   0  0  0  0  0  0  0  0  0  0  0  0
   14.4735    0.2620    8.3544 H   0  0  0  0  0  0  0  0  0  0  0  0
   18.1210    0.2332   10.4483 H   0  0  0  0  0  0  0  0  0  0  0  0
   19.2040   -1.9705    9.9781 H   0  0  0  0  0  0  0  0  0  0  0  0
   18.9249   -2.9785    7.7332 H   0  0  0  0  0  0  0  0  0  0  0  0
   17.4190   -2.4746    1.1860 H   0  0  0  0  0  0  0  0  0  0  0  0
   18.4055   -3.6452   -0.7442 H   0  0  0  0  0  0  0  0  0  0  0  0
   20.9061   -5.9186    1.8886 H   0  0  0  0  0  0  0  0  0  0  0  0
  1  2  1  0
  2 27  1  0
  2  3  2  0
  3  4  1  0
  3 23  1  0
  4  5  1  0
  4 28  1  0
  5  6  2  0
  5  7  1  0
  7  8  1  0
  7 29  1  0
  8 22  1  0
  8  9  2  0
  9 10  1  0
  9 19  1  0
 10 11  1  0
 11 18  1  0
 11 12  2  0
 12 13  1  0
 12 15  1  0
 13 14  1  0
 13 30  1  6
 13 31  1  0
 14 32  1  6
 14 33  1  0
 14 34  1  0
 15 16  2  0
 15 35  1  0
 16 17  1  0
 16 36  1  0
 17 18  2  0
 17 37  1  0
 18 38  1  0
 19 20  2  0
 20 21  1  0
 20 39  1  0
 21 22  2  0
 21 40  1  0
 22 41  1  0
 23 24  2  0
 23 42  1  0
 24 25  1  0
 24 43  1  0
 25 26  1  0
 25 27  2  0
 27 44  1  0
M  END
