19939_cys
     RDKit          3D

 46 49  0  0  1  0  0  0  0  0999 V2000
    6.7162   10.4574   18.7392 N   0  0  0  0  0  0  0  0  0  0  0  0
    5.7868    9.8378   19.4704 C   0  0  0  0  0  0  0  0  0  0  0  0
    5.3639   10.3036   20.5257 O   0  0  0  0  0  0  0  0  0  0  0  0
    5.2126    8.5726   18.8992 C   0  0  0  0  0  0  0  0  0  0  0  0
    5.9794    7.7237   18.0906 C   0  0  0  0  0  0  0  0  0  0  0  0
    5.5020    6.6416   17.4387 N   0  0  0  0  0  0  0  0  0  0  0  0
    4.2004    6.2810   17.5826 C   0  0  0  0  0  0  0  0  0  0  0  0
    3.7504    5.1543   16.8685 N   0  0  0  0  0  0  0  0  0  0  0  0
    4.4045    4.7346   15.6252 C   0  0  1  0  0  0  0  0  0  0  0  0
    3.9460    3.3182   15.2226 C   0  0  1  0  0  0  0  0  0  0  0  0
    4.5252    2.8850   13.8643 C   0  0  1  0  0  0  0  0  0  0  0  0
    4.2005    3.9081   12.7613 C   0  0  1  0  0  0  0  0  0  0  0  0
    4.7026    5.2693   13.1737 N   0  0  1  0  0  0  0  0  0  0  0  0
    4.1570    5.7653   14.4934 C   0  0  1  0  0  0  0  0  0  0  0  0
    3.3420    7.0116   18.4284 C   0  0  0  0  0  0  0  0  0  0  0  0
    1.9602    6.8125   18.7771 C   0  0  0  0  0  0  0  0  0  0  0  0
    1.4209    7.7536   19.6583 C   0  0  0  0  0  0  0  0  0  0  0  0
    0.0785    7.8058   20.2392 C   0  0  0  0  0  0  0  0  0  0  0  0
   -0.8471    6.7839   19.9811 C   0  0  0  0  0  0  0  0  0  0  0  0
   -2.1272    6.8124   20.5348 C   0  0  0  0  0  0  0  0  0  0  0  0
   -2.5067    7.8698   21.3586 C   0  0  0  0  0  0  0  0  0  0  0  0
   -4.0919    7.9119   22.0383 Cl  0  0  0  0  0  0  0  0  0  0  0  0
   -1.6045    8.8937   21.6309 C   0  0  0  0  0  0  0  0  0  0  0  0
   -0.3276    8.8618   21.0750 C   0  0  0  0  0  0  0  0  0  0  0  0
    2.6120    8.9601   20.0511 S   0  0  0  0  0  0  0  0  0  0  0  0
    3.8657    8.1755   19.0816 C   0  0  0  0  0  0  0  0  0  0  0  0
    7.1106   11.3257   19.0705 H   0  0  0  0  0  0  0  0  0  0  0  0
    7.0200   10.0606   17.8623 H   0  0  0  0  0  0  0  0  0  0  0  0
    7.0378    7.8906   17.9502 H   0  0  0  0  0  0  0  0  0  0  0  0
    2.9939    4.6508   17.3096 H   0  0  0  0  0  0  0  0  0  0  0  0
    5.4705    4.6829   15.8468 H   0  0  0  0  0  0  0  0  0  0  0  0
    4.2312    2.5922   15.9840 H   0  0  0  0  0  0  0  0  0  0  0  0
    2.8584    3.2915   15.1564 H   0  0  0  0  0  0  0  0  0  0  0  0
    5.6049    2.7576   13.9429 H   0  0  0  0  0  0  0  0  0  0  0  0
    4.1249    1.9102   13.5857 H   0  0  0  0  0  0  0  0  0  0  0  0
    4.6809    3.6102   11.8293 H   0  0  0  0  0  0  0  0  0  0  0  0
    3.1285    3.9387   12.5666 H   0  0  0  0  0  0  0  0  0  0  0  0
    5.7058    5.2213   13.2808 H   0  0  0  0  0  0  0  0  0  0  0  0
    3.0931    5.9797   14.3923 H   0  0  0  0  0  0  0  0  0  0  0  0
    4.6456    6.7079   14.7399 H   0  0  0  0  0  0  0  0  0  0  0  0
    1.3381    6.0221   18.4044 H   0  0  0  0  0  0  0  0  0  0  0  0
   -0.5762    5.9488   19.3522 H   0  0  0  0  0  0  0  0  0  0  0  0
   -2.8230    6.0133   20.3252 H   0  0  0  0  0  0  0  0  0  0  0  0
   -1.8947    9.7140   22.2709 H   0  0  0  0  0  0  0  0  0  0  0  0
    0.3439    9.6777   21.2972 H   0  0  0  0  0  0  0  0  0  0  0  0
    4.4453    5.9480   12.4714 H   0  0  0  0  0  0  0  0  0  0  0  0
  1  2  1  0
  1 27  1  0
  1 28  1  0
  2  3  2  0
  2  4  1  0
  4 26  1  0
  4  5  2  0
  5  6  1  0
  5 29  1  0
  6  7  2  0
  7  8  1  0
  7 15  1  0
  8  9  1  0
  8 30  1  0
  9 14  1  0
  9 10  1  0
  9 31  1  1
 10 11  1  0
 10 32  1  1
 10 33  1  0
 11 12  1  0
 11 34  1  1
 11 35  1  0
 12 13  1  0
 12 36  1  6
 12 37  1  0
 13 14  1  0
 13 38  1  1
 13 46  1  0
 14 39  1  6
 14 40  1  0
 15 26  2  0
 15 16  1  0
 16 17  2  0
 16 41  1  0
 17 18  1  0
 17 25  1  0
 18 24  1  0
 18 19  2  0
 19 20  1  0
 19 42  1  0
 20 21  2  0
 20 43  1  0
 21 22  1  0
 21 23  1  0
 23 24  2  0
 23 44  1  0
 24 45  1  0
 25 26  1  0
M  CHG  1  13   1
M  END
