19940
     RDKit          3D

 45 48  0  0  1  0  0  0  0  0999 V2000
    6.9242   10.2708   19.0112 N   0  0  0  0  0  0  0  0  0  0  0  0
    5.7994    9.7932   19.5511 C   0  0  0  0  0  0  0  0  0  0  0  0
    5.2992   10.2793   20.5635 O   0  0  0  0  0  0  0  0  0  0  0  0
    5.2126    8.5726   18.8992 C   0  0  0  0  0  0  0  0  0  0  0  0
    5.9794    7.7237   18.0906 N   0  0  0  0  0  0  0  0  0  0  0  0
    5.5020    6.6416   17.4387 N   0  0  0  0  0  0  0  0  0  0  0  0
    4.2004    6.2810   17.5826 C   0  0  0  0  0  0  0  0  0  0  0  0
    3.7504    5.1543   16.8685 N   0  0  0  0  0  0  0  0  0  0  0  0
    4.4045    4.7346   15.6252 C   0  0  1  0  0  0  0  0  0  0  0  0
    3.9460    3.3182   15.2226 C   0  0  1  0  0  0  0  0  0  0  0  0
    4.5252    2.8850   13.8643 C   0  0  2  0  0  0  0  0  0  0  0  0
    4.2005    3.9081   12.7613 C   0  0  1  0  0  0  0  0  0  0  0  0
    4.7026    5.2693   13.1737 N   0  0  1  0  0  0  0  0  0  0  0  0
    4.1570    5.7653   14.4934 C   0  0  1  0  0  0  0  0  0  0  0  0
    3.3420    7.0116   18.4284 C   0  0  0  0  0  0  0  0  0  0  0  0
    1.9602    6.8125   18.7771 C   0  0  0  0  0  0  0  0  0  0  0  0
    1.4209    7.7536   19.6583 C   0  0  0  0  0  0  0  0  0  0  0  0
    0.0785    7.8058   20.2392 C   0  0  0  0  0  0  0  0  0  0  0  0
   -0.8471    6.7839   19.9811 C   0  0  0  0  0  0  0  0  0  0  0  0
   -2.1272    6.8124   20.5348 C   0  0  0  0  0  0  0  0  0  0  0  0
   -2.5067    7.8698   21.3586 C   0  0  0  0  0  0  0  0  0  0  0  0
   -4.0919    7.9120   22.0382 Cl  0  0  0  0  0  0  0  0  0  0  0  0
   -1.6045    8.8937   21.6309 C   0  0  0  0  0  0  0  0  0  0  0  0
   -0.3276    8.8618   21.0750 C   0  0  0  0  0  0  0  0  0  0  0  0
    2.6120    8.9601   20.0511 S   0  0  0  0  0  0  0  0  0  0  0  0
    3.8657    8.1755   19.0816 C   0  0  0  0  0  0  0  0  0  0  0  0
    7.3734   11.0728   19.4282 H   0  0  0  0  0  0  0  0  0  0  0  0
    7.3214    9.8276   18.1960 H   0  0  0  0  0  0  0  0  0  0  0  0
    2.9682    4.6712   17.2872 H   0  0  0  0  0  0  0  0  0  0  0  0
    5.4705    4.6829   15.8467 H   0  0  0  0  0  0  0  0  0  0  0  0
    4.2312    2.5922   15.9840 H   0  0  0  0  0  0  0  0  0  0  0  0
    2.8584    3.2915   15.1564 H   0  0  0  0  0  0  0  0  0  0  0  0
    4.1249    1.9102   13.5857 H   0  0  0  0  0  0  0  0  0  0  0  0
    5.6049    2.7576   13.9429 H   0  0  0  0  0  0  0  0  0  0  0  0
    4.6809    3.6102   11.8293 H   0  0  0  0  0  0  0  0  0  0  0  0
    3.1285    3.9387   12.5666 H   0  0  0  0  0  0  0  0  0  0  0  0
    5.7058    5.2213   13.2808 H   0  0  0  0  0  0  0  0  0  0  0  0
    3.0931    5.9797   14.3923 H   0  0  0  0  0  0  0  0  0  0  0  0
    4.6456    6.7079   14.7399 H   0  0  0  0  0  0  0  0  0  0  0  0
    1.3421    6.0135   18.4134 H   0  0  0  0  0  0  0  0  0  0  0  0
   -0.5763    5.9488   19.3522 H   0  0  0  0  0  0  0  0  0  0  0  0
   -2.8230    6.0133   20.3252 H   0  0  0  0  0  0  0  0  0  0  0  0
   -1.8947    9.7140   22.2709 H   0  0  0  0  0  0  0  0  0  0  0  0
    0.3439    9.6776   21.2972 H   0  0  0  0  0  0  0  0  0  0  0  0
    4.4453    5.9480   12.4714 H   0  0  0  0  0  0  0  0  0  0  0  0
  1  2  1  0
  1 27  1  0
  1 28  1  0
  2  3  2  0
  2  4  1  0
  4 26  1  0
  4  5  2  0
  5  6  1  0
  6  7  2  0
  7  8  1  0
  7 15  1  0
  8  9  1  0
  8 29  1  0
  9 14  1  0
  9 10  1  0
  9 30  1  1
 10 11  1  0
 10 31  1  1
 10 32  1  0
 11 12  1  0
 11 33  1  6
 11 34  1  0
 12 13  1  0
 12 35  1  6
 12 36  1  0
 13 14  1  0
 13 37  1  1
 13 45  1  0
 14 38  1  6
 14 39  1  0
 15 26  2  0
 15 16  1  0
 16 17  2  0
 16 40  1  0
 17 18  1  0
 17 25  1  0
 18 24  1  0
 18 19  2  0
 19 20  1  0
 19 41  1  0
 20 21  2  0
 20 42  1  0
 21 22  1  0
 21 23  1  0
 23 24  2  0
 23 43  1  0
 24 44  1  0
 25 26  1  0
M  CHG  1  13   1
M  END
