16charg
     RDKit          3D

 36 39  0  0  1  0  0  0  0  0999 V2000
  -31.0114   15.5779   14.7787 N   0  0  0  0  0  0  0  0  0  0  0  0
  -30.2642   16.6119   14.2120 N   0  0  0  0  0  0  0  0  0  0  0  0
  -30.7949   17.7703   14.7797 C   0  0  0  0  0  0  0  0  0  0  0  0
  -31.8278   17.3381   15.6333 C   0  0  0  0  0  0  0  0  0  0  0  0
  -31.9121   15.9810   15.6453 N   0  0  0  0  0  0  0  0  0  0  0  0
  -32.5974   18.2935   16.3108 C   0  0  0  0  0  0  0  0  0  0  0  0
  -32.4238   19.6375   16.1766 N   0  0  0  0  0  0  0  0  0  0  0  0
  -31.4342   20.0219   15.3651 C   0  0  0  0  0  0  0  0  0  0  0  0
  -30.5611   19.1684   14.6421 C   0  0  0  0  0  0  0  0  0  0  0  0
  -29.6471   19.9921   13.9126 C   0  0  0  0  0  0  0  0  0  0  0  0
  -30.0090   21.3003   14.1892 C   0  0  0  0  0  0  0  0  0  0  0  0
  -31.0825   21.3143   15.0499 N   0  0  0  0  0  0  0  0  0  0  0  0
  -29.1864   16.4388   13.2287 C   0  0  1  0  0  0  0  0  0  0  0  0
  -29.4869   17.1415   11.8818 C   0  0  2  0  0  0  0  0  0  0  0  0
  -28.3050   17.0077   10.8956 C   0  0  2  0  0  0  0  0  0  0  0  0
  -26.9737   17.4472   11.5305 C   0  0  1  0  0  0  0  0  0  0  0  0
  -26.6890   16.6909   12.8364 C   0  0  2  0  0  0  0  0  0  0  0  0
  -27.8410   16.8767   13.8355 C   0  0  2  0  0  0  0  0  0  0  0  0
  -25.7901   17.2436   10.5555 N   0  0  1  0  0  0  0  0  0  0  0  0
  -33.3822   17.9844   16.9814 H   0  0  0  0  0  0  0  0  0  0  0  0
  -28.8245   19.7146   13.2674 H   0  0  0  0  0  0  0  0  0  0  0  0
  -29.5952   22.2341   13.8378 H   0  0  0  0  0  0  0  0  0  0  0  0
  -31.5125   22.1665   15.3882 H   0  0  0  0  0  0  0  0  0  0  0  0
  -29.0809   15.3811   12.9913 H   0  0  0  0  0  0  0  0  0  0  0  0
  -29.7209   18.1936   12.0148 H   0  0  0  0  0  0  0  0  0  0  0  0
  -30.3791   16.7023   11.4322 H   0  0  0  0  0  0  0  0  0  0  0  0
  -28.5200   17.5955   10.0017 H   0  0  0  0  0  0  0  0  0  0  0  0
  -28.2356   15.9719   10.5623 H   0  0  0  0  0  0  0  0  0  0  0  0
  -27.0203   18.5053   11.7277 H   0  0  0  0  0  0  0  0  0  0  0  0
  -25.7615   17.0248   13.2962 H   0  0  0  0  0  0  0  0  0  0  0  0
  -26.5552   15.6277   12.6328 H   0  0  0  0  0  0  0  0  0  0  0  0
  -27.6330   16.2931   14.7332 H   0  0  0  0  0  0  0  0  0  0  0  0
  -27.8790   17.9153   14.1539 H   0  0  0  0  0  0  0  0  0  0  0  0
  -25.2456   16.4262   10.7861 H   0  0  0  0  0  0  0  0  0  0  0  0
  -26.0747   17.1682    9.5870 H   0  0  0  0  0  0  0  0  0  0  0  0
  -25.1643   18.0430   10.5696 H   0  0  0  0  0  0  0  0  0  0  0  0
  1  2  1  0
  1  5  2  0
  2  3  1  0
  2 13  1  0
  3  4  2  0
  3  9  1  0
  4  5  1  0
  4  6  1  0
  6  7  2  0
  6 20  1  0
  7  8  1  0
  8  9  2  0
  8 12  1  0
  9 10  1  0
 10 11  2  0
 10 21  1  0
 11 12  1  0
 11 22  1  0
 12 23  1  0
 13 14  1  0
 13 18  1  0
 13 24  1  6
 14 15  1  0
 14 25  1  1
 14 26  1  0
 15 16  1  0
 15 27  1  6
 15 28  1  0
 16 17  1  0
 16 19  1  0
 16 29  1  1
 17 18  1  0
 17 30  1  1
 17 31  1  0
 18 32  1  1
 18 33  1  0
 19 34  1  1
 19 35  1  0
 19 36  1  0
M  CHG  1  19   1
M  END
