18charg
     RDKit          3D

 43 46  0  0  1  0  0  0  0  0999 V2000
  -31.0114   15.5779   14.7787 N   0  0  0  0  0  0  0  0  0  0  0  0
  -30.2648   16.6121   14.2126 N   0  0  0  0  0  0  0  0  0  0  0  0
  -30.7949   17.7703   14.7797 C   0  0  0  0  0  0  0  0  0  0  0  0
  -31.8278   17.3381   15.6333 C   0  0  0  0  0  0  0  0  0  0  0  0
  -31.9121   15.9810   15.6453 N   0  0  0  0  0  0  0  0  0  0  0  0
  -32.5974   18.2935   16.3108 C   0  0  0  0  0  0  0  0  0  0  0  0
  -32.4238   19.6375   16.1766 N   0  0  0  0  0  0  0  0  0  0  0  0
  -31.4342   20.0219   15.3651 C   0  0  0  0  0  0  0  0  0  0  0  0
  -30.5611   19.1684   14.6421 C   0  0  0  0  0  0  0  0  0  0  0  0
  -29.6457   19.9926   13.9132 C   0  0  0  0  0  0  0  0  0  0  0  0
  -30.0090   21.3003   14.1892 C   0  0  0  0  0  0  0  0  0  0  0  0
  -31.0825   21.3143   15.0499 N   0  0  0  0  0  0  0  0  0  0  0  0
  -29.1862   16.4386   13.2284 C   0  0  1  0  0  0  0  0  0  0  0  0
  -29.4870   17.1416   11.8818 C   0  0  2  0  0  0  0  0  0  0  0  0
  -28.3051   17.0077   10.8957 C   0  0  2  0  0  0  0  0  0  0  0  0
  -26.9575   17.4260   11.5433 C   0  0  1  0  0  0  0  0  0  0  0  0
  -26.6891   16.6910   12.8365 C   0  0  2  0  0  0  0  0  0  0  0  0
  -27.8410   16.8768   13.8355 C   0  0  2  0  0  0  0  0  0  0  0  0
  -25.7345   16.9981   10.6928 N   0  0  1  0  0  0  0  0  0  0  0  0
  -24.7169   18.1374   10.5221 C   0  0  2  0  0  0  0  0  0  0  0  0
  -33.3822   17.9844   16.9814 H   0  0  0  0  0  0  0  0  0  0  0  0
  -28.8251   19.7142   13.2670 H   0  0  0  0  0  0  0  0  0  0  0  0
  -29.5952   22.2341   13.8378 H   0  0  0  0  0  0  0  0  0  0  0  0
  -31.5125   22.1665   15.3882 H   0  0  0  0  0  0  0  0  0  0  0  0
  -29.0808   15.3812   12.9912 H   0  0  0  0  0  0  0  0  0  0  0  0
  -29.7209   18.1936   12.0148 H   0  0  0  0  0  0  0  0  0  0  0  0
  -30.3791   16.7023   11.4321 H   0  0  0  0  0  0  0  0  0  0  0  0
  -28.5200   17.5954   10.0017 H   0  0  0  0  0  0  0  0  0  0  0  0
  -28.2356   15.9719   10.5623 H   0  0  0  0  0  0  0  0  0  0  0  0
  -27.0204   18.5050   11.7277 H   0  0  0  0  0  0  0  0  0  0  0  0
  -25.7615   17.0248   13.2962 H   0  0  0  0  0  0  0  0  0  0  0  0
  -26.5552   15.6277   12.6328 H   0  0  0  0  0  0  0  0  0  0  0  0
  -27.6329   16.2931   14.7332 H   0  0  0  0  0  0  0  0  0  0  0  0
  -27.8790   17.9153   14.1539 H   0  0  0  0  0  0  0  0  0  0  0  0
  -25.0760   19.0429   11.0122 H   0  0  0  0  0  0  0  0  0  0  0  0
  -24.8253   18.1628    9.4501 H   0  0  0  0  0  0  0  0  0  0  0  0
  -23.2176   17.9325   10.7575 C   0  0  2  0  0  0  0  0  0  0  0  0
  -22.7509   18.8853   10.5024 H   0  0  0  0  0  0  0  0  0  0  0  0
  -22.7585   17.2420   10.0647 H   0  0  0  0  0  0  0  0  0  0  0  0
  -22.4216   17.3944   13.1897 N   0  0  0  0  0  0  0  0  0  0  0  0
  -22.7757   17.6326   12.1189 C   0  0  0  0  0  0  0  0  0  0  0  0
  -25.2914   16.1810   11.0927 H   0  0  0  0  0  0  0  0  0  0  0  0
  -26.0434   16.7485    9.7606 H   0  0  0  0  0  0  0  0  0  0  0  0
  1  2  1  0
  1  5  2  0
  2  3  1  0
  2 13  1  0
  3  4  2  0
  3  9  1  0
  4  5  1  0
  4  6  1  0
  6  7  2  0
  6 21  1  0
  7  8  1  0
  8  9  2  0
  8 12  1  0
  9 10  1  0
 10 11  2  0
 10 22  1  0
 11 12  1  0
 11 23  1  0
 12 24  1  0
 13 14  1  0
 13 18  1  0
 13 25  1  6
 14 15  1  0
 14 26  1  1
 14 27  1  0
 15 16  1  0
 15 28  1  6
 15 29  1  0
 16 17  1  0
 16 19  1  0
 16 30  1  1
 17 18  1  0
 17 31  1  1
 17 32  1  0
 18 33  1  1
 18 34  1  0
 19 20  1  0
 19 42  1  1
 19 43  1  0
 20 35  1  1
 20 36  1  0
 20 37  1  0
 37 38  1  6
 37 39  1  0
 37 41  1  0
 40 41  3  0
M  CHG  1  19   1
M  END
