jmc_25
     RDKit          3D

 45 48  0  0  1  0  0  0  0  0999 V2000
  -31.4953   13.1119   15.3654 C   0  0  1  0  0  0  0  0  0  0  0  0
  -30.8583   14.1129   14.3840 C   0  0  1  0  0  0  0  0  0  0  0  0
  -31.4599   13.9510   13.1214 O   0  0  0  0  0  0  0  0  0  0  0  0
  -31.0114   15.5779   14.7787 C   0  0  0  0  0  0  0  0  0  0  0  0
  -30.2663   16.6126   14.2144 N   0  0  0  0  0  0  0  0  0  0  0  0
  -30.7949   17.7703   14.7797 C   0  0  0  0  0  0  0  0  0  0  0  0
  -31.8278   17.3381   15.6333 C   0  0  0  0  0  0  0  0  0  0  0  0
  -31.9121   15.9810   15.6453 N   0  0  0  0  0  0  0  0  0  0  0  0
  -32.5974   18.2935   16.3108 C   0  0  0  0  0  0  0  0  0  0  0  0
  -32.4238   19.6375   16.1766 N   0  0  0  0  0  0  0  0  0  0  0  0
  -31.4342   20.0219   15.3651 C   0  0  0  0  0  0  0  0  0  0  0  0
  -30.5611   19.1684   14.6421 C   0  0  0  0  0  0  0  0  0  0  0  0
  -29.6411   19.9940   13.9148 C   0  0  0  0  0  0  0  0  0  0  0  0
  -30.0090   21.3003   14.1892 C   0  0  0  0  0  0  0  0  0  0  0  0
  -31.0825   21.3143   15.0499 N   0  0  0  0  0  0  0  0  0  0  0  0
  -29.1854   16.4380   13.2276 C   0  0  1  0  0  0  0  0  0  0  0  0
  -29.4872   17.1421   11.8819 C   0  0  2  0  0  0  0  0  0  0  0  0
  -28.3057   17.0081   10.8959 C   0  0  2  0  0  0  0  0  0  0  0  0
  -26.9476   17.4389   11.5082 C   0  0  1  0  0  0  0  0  0  0  0  0
  -26.6887   16.6913   12.8358 C   0  0  2  0  0  0  0  0  0  0  0  0
  -27.8409   16.8772   13.8358 C   0  0  2  0  0  0  0  0  0  0  0  0
  -25.8937   17.2642   10.5879 O   0  0  0  0  0  0  0  0  0  0  0  0
  -24.7202   17.9881   10.8830 C   0  0  2  0  0  0  0  0  0  0  0  0
  -31.0769   13.2278   16.3654 H   0  0  0  0  0  0  0  0  0  0  0  0
  -32.5754   13.2415   15.4383 H   0  0  0  0  0  0  0  0  0  0  0  0
  -31.3063   12.0848   15.0540 H   0  0  0  0  0  0  0  0  0  0  0  0
  -29.8090   13.8411   14.2941 H   0  0  0  0  0  0  0  0  0  0  0  0
  -31.5125   13.0111   12.9166 H   0  0  0  0  0  0  0  0  0  0  0  0
  -33.3822   17.9844   16.9814 H   0  0  0  0  0  0  0  0  0  0  0  0
  -28.8270   19.7129   13.2656 H   0  0  0  0  0  0  0  0  0  0  0  0
  -29.5952   22.2341   13.8378 H   0  0  0  0  0  0  0  0  0  0  0  0
  -31.5125   22.1665   15.3882 H   0  0  0  0  0  0  0  0  0  0  0  0
  -29.0805   15.3814   12.9909 H   0  0  0  0  0  0  0  0  0  0  0  0
  -29.7209   18.1936   12.0147 H   0  0  0  0  0  0  0  0  0  0  0  0
  -30.3791   16.7023   11.4321 H   0  0  0  0  0  0  0  0  0  0  0  0
  -28.5201   17.5953   10.0016 H   0  0  0  0  0  0  0  0  0  0  0  0
  -28.2355   15.9719   10.5623 H   0  0  0  0  0  0  0  0  0  0  0  0
  -27.0208   18.5054   11.7279 H   0  0  0  0  0  0  0  0  0  0  0  0
  -25.7617   17.0246   13.2961 H   0  0  0  0  0  0  0  0  0  0  0  0
  -26.5551   15.6278   12.6325 H   0  0  0  0  0  0  0  0  0  0  0  0
  -27.6329   16.2931   14.7332 H   0  0  0  0  0  0  0  0  0  0  0  0
  -27.8789   17.9153   14.1538 H   0  0  0  0  0  0  0  0  0  0  0  0
  -24.9604   18.9984   11.2053 H   0  0  0  0  0  0  0  0  0  0  0  0
  -24.1065   18.0622    9.9883 H   0  0  0  0  0  0  0  0  0  0  0  0
  -24.1627   17.4767   11.6677 H   0  0  0  0  0  0  0  0  0  0  0  0
  1  2  1  0
  1 24  1  1
  1 25  1  0
  1 26  1  0
  2  3  1  0
  2  4  1  0
  2 27  1  6
  3 28  1  0
  4  5  1  0
  4  8  2  0
  5  6  1  0
  5 16  1  0
  6  7  2  0
  6 12  1  0
  7  8  1  0
  7  9  1  0
  9 10  2  0
  9 29  1  0
 10 11  1  0
 11 12  2  0
 11 15  1  0
 12 13  1  0
 13 14  2  0
 13 30  1  0
 14 15  1  0
 14 31  1  0
 15 32  1  0
 16 17  1  0
 16 21  1  0
 16 33  1  6
 17 18  1  0
 17 34  1  1
 17 35  1  0
 18 19  1  0
 18 36  1  6
 18 37  1  0
 19 20  1  0
 19 22  1  0
 19 38  1  1
 20 21  1  0
 20 39  1  1
 20 40  1  0
 21 41  1  1
 21 42  1  0
 22 23  1  0
 23 43  1  1
 23 44  1  0
 23 45  1  0
M  END
