22316
     RDKit          3D

 64 66  0  0  1  0  0  0  0  0999 V2000
   11.1593    0.1044   -0.9062 C   0  0  1  0  0  0  0  0  0  0  0  0
   12.0339   -1.1418   -0.8346 C   0  0  0  0  0  0  0  0  0  0  0  0
   11.6670   -2.1836   -1.3748 O   0  0  0  0  0  0  0  0  0  0  0  0
   13.1862   -1.0175   -0.1561 N   0  0  0  0  0  0  0  0  0  0  0  0
   14.1886   -2.0630    0.0707 C   0  0  1  0  0  0  0  0  0  0  0  0
   15.6064   -1.6338   -0.3626 C   0  0  1  0  0  0  0  0  0  0  0  0
   15.6143   -0.9742   -1.7361 C   0  0  0  0  0  0  0  0  0  0  0  0
   15.1291   -1.6852   -2.8538 C   0  0  0  0  0  0  0  0  0  0  0  0
   15.0263   -1.0651   -4.1111 C   0  0  0  0  0  0  0  0  0  0  0  0
   14.5260   -1.7525   -5.1647 F   0  0  0  0  0  0  0  0  0  0  0  0
   15.4433    0.2689   -4.2678 C   0  0  0  0  0  0  0  0  0  0  0  0
   15.9498    0.9807   -3.1620 C   0  0  0  0  0  0  0  0  0  0  0  0
   16.3534    2.2644   -3.3105 F   0  0  0  0  0  0  0  0  0  0  0  0
   16.0376    0.3616   -1.8980 C   0  0  0  0  0  0  0  0  0  0  0  0
   14.0883   -2.6824    1.4833 C   0  0  2  0  0  0  0  0  0  0  0  0
   14.9759   -3.7716    1.6575 O   0  0  0  0  0  0  0  0  0  0  0  0
   12.6536   -3.1428    1.7853 C   0  0  2  0  0  0  0  0  0  0  0  0
   12.5664   -3.8852    3.0535 N   0  0  2  0  0  0  0  0  0  0  0  0
   11.4133   -4.8038    3.1178 C   0  0  1  0  0  0  0  0  0  0  0  0
   11.4707   -5.9434    2.1454 C   0  0  0  0  0  0  0  0  0  0  0  0
   10.0754   -6.4644    1.2382 C   0  0  0  0  0  0  0  0  0  0  0  0
   10.9975   -7.7248    0.4693 C   0  0  0  0  0  0  0  0  0  0  0  0
   12.3083   -7.7265    0.8732 C   0  0  0  0  0  0  0  0  0  0  0  0
   13.4023   -8.6462    0.4223 C   0  0  1  0  0  0  0  0  0  0  0  0
   13.6321   -9.9207    1.2845 C   0  0  1  0  0  0  0  0  0  0  0  0
   14.0730   -9.4916    2.6975 C   0  0  1  0  0  0  0  0  0  0  0  0
   12.3184  -10.7179    1.4064 C   0  0  1  0  0  0  0  0  0  0  0  0
   14.7214  -10.8389    0.6891 C   0  0  1  0  0  0  0  0  0  0  0  0
   12.5683   -6.6992    1.8236 S   0  0  0  0  0  0  0  0  0  0  0  0
   10.9045   -4.9998    4.5180 C   0  0  1  0  0  0  0  0  0  0  0  0
   10.1365   -4.1189    3.5567 C   0  0  1  0  0  0  0  0  0  0  0  0
   10.2630   -0.0853   -1.4977 H   0  0  0  0  0  0  0  0  0  0  0  0
   10.8497    0.4090    0.0939 H   0  0  0  0  0  0  0  0  0  0  0  0
   11.7044    0.9283   -1.3676 H   0  0  0  0  0  0  0  0  0  0  0  0
   13.3790   -0.1170    0.2583 H   0  0  0  0  0  0  0  0  0  0  0  0
   13.8781   -2.8376   -0.6317 H   0  0  0  0  0  0  0  0  0  0  0  0
   16.0376   -0.9482    0.3680 H   0  0  0  0  0  0  0  0  0  0  0  0
   16.2734   -2.4947   -0.3869 H   0  0  0  0  0  0  0  0  0  0  0  0
   14.8284   -2.7178   -2.7534 H   0  0  0  0  0  0  0  0  0  0  0  0
   15.3751    0.7465   -5.2340 H   0  0  0  0  0  0  0  0  0  0  0  0
   16.4242    0.9159   -1.0550 H   0  0  0  0  0  0  0  0  0  0  0  0
   14.3639   -1.9263    2.2202 H   0  0  0  0  0  0  0  0  0  0  0  0
   15.8516   -3.4367    1.7830 H   0  0  0  0  0  0  0  0  0  0  0  0
   12.2889   -3.7726    0.9727 H   0  0  0  0  0  0  0  0  0  0  0  0
   11.9925   -2.2764    1.8290 H   0  0  0  0  0  0  0  0  0  0  0  0
   12.5103   -3.2141    3.8069 H   0  0  0  0  0  0  0  0  0  0  0  0
    9.0961   -6.0129    1.3004 H   0  0  0  0  0  0  0  0  0  0  0  0
   10.5545   -8.4113   -0.2373 H   0  0  0  0  0  0  0  0  0  0  0  0
   13.1600   -8.9534   -0.5961 H   0  0  0  0  0  0  0  0  0  0  0  0
   14.3331   -8.0860    0.3255 H   0  0  0  0  0  0  0  0  0  0  0  0
   14.2066  -10.3530    3.3530 H   0  0  0  0  0  0  0  0  0  0  0  0
   15.0202   -8.9514    2.6740 H   0  0  0  0  0  0  0  0  0  0  0  0
   13.3335   -8.8385    3.1625 H   0  0  0  0  0  0  0  0  0  0  0  0
   12.4446  -11.5950    2.0421 H   0  0  0  0  0  0  0  0  0  0  0  0
   11.5219  -10.1128    1.8410 H   0  0  0  0  0  0  0  0  0  0  0  0
   11.9707  -11.0707    0.4358 H   0  0  0  0  0  0  0  0  0  0  0  0
   14.9256  -11.6858    1.3451 H   0  0  0  0  0  0  0  0  0  0  0  0
   14.4267  -11.2492   -0.2772 H   0  0  0  0  0  0  0  0  0  0  0  0
   15.6596  -10.3007    0.5497 H   0  0  0  0  0  0  0  0  0  0  0  0
   10.4728   -5.9691    4.7671 H   0  0  0  0  0  0  0  0  0  0  0  0
   11.4479   -4.5094    5.3257 H   0  0  0  0  0  0  0  0  0  0  0  0
   10.1714   -3.0414    3.7178 H   0  0  0  0  0  0  0  0  0  0  0  0
    9.1963   -4.5011    3.1592 H   0  0  0  0  0  0  0  0  0  0  0  0
   13.4151   -4.4194    3.1668 H   0  0  0  0  0  0  0  0  0  0  0  0
  1  2  1  0
  1 32  1  6
  1 33  1  0
  1 34  1  0
  2  3  2  0
  2  4  1  0
  4  5  1  0
  4 35  1  0
  5  6  1  0
  5 15  1  0
  5 36  1  6
  6  7  1  0
  6 37  1  1
  6 38  1  0
  7 14  1  0
  7  8  2  0
  8  9  1  0
  8 39  1  0
  9 10  1  0
  9 11  2  0
 11 12  1  0
 11 40  1  0
 12 13  1  0
 12 14  2  0
 14 41  1  0
 15 16  1  0
 15 17  1  0
 15 42  1  1
 16 43  1  0
 17 18  1  0
 17 44  1  6
 17 45  1  0
 18 19  1  0
 18 46  1  1
 18 64  1  0
 19 31  1  0
 19 20  1  6
 19 30  1  0
 20 29  1  0
 20 21  2  0
 21 22  1  0
 21 47  1  0
 22 23  2  0
 22 48  1  0
 23 24  1  0
 23 29  1  0
 25 24  1  6
 24 49  1  6
 24 50  1  0
 25 26  1  0
 25 27  1  0
 25 28  1  0
 26 51  1  1
 26 52  1  0
 26 53  1  0
 27 54  1  1
 27 55  1  0
 27 56  1  0
 28 57  1  1
 28 58  1  0
 28 59  1  0
 30 31  1  0
 30 60  1  1
 30 61  1  0
 31 62  1  1
 31 63  1  0
M  CHG  1  18   1
M  END
