13
     RDKit          3D

 57 60  0  0  1  0  0  0  0  0999 V2000
   10.7704    0.9449   14.6233 C   0  0  0  0  0  0  0  0  0  0  0  0
    9.8434    1.1362   13.5804 C   0  0  0  0  0  0  0  0  0  0  0  0
    9.1091    0.0130   13.1095 C   0  0  0  0  0  0  0  0  0  0  0  0
    8.1219    0.1227   11.9623 C   0  0  1  0  0  0  0  0  0  0  0  0
    9.2908   -1.2496   13.7219 C   0  0  0  0  0  0  0  0  0  0  0  0
   10.2197   -1.4110   14.7650 C   0  0  0  0  0  0  0  0  0  0  0  0
   10.9920   -0.3238   15.2087 C   0  0  0  0  0  0  0  0  0  0  0  0
   12.0012   -0.5019   16.3123 C   0  0  0  0  0  0  0  0  0  0  0  0
   14.2832    0.1381   17.0734 C   0  0  2  0  0  0  0  0  0  0  0  0
   15.1984    3.2681   16.4723 C   0  0  2  0  0  0  0  0  0  0  0  0
   15.0169    2.6963   15.1810 O   0  0  0  0  0  0  0  0  0  0  0  0
   14.8644    3.5833   14.1329 C   0  0  0  0  0  0  0  0  0  0  0  0
   13.6355    4.2253   13.8363 C   0  0  0  0  0  0  0  0  0  0  0  0
   15.9448    3.7723   13.2502 C   0  0  0  0  0  0  0  0  0  0  0  0
   15.8124    4.5809   12.1031 C   0  0  0  0  0  0  0  0  0  0  0  0
   14.5766    5.1763   11.8004 C   0  0  0  0  0  0  0  0  0  0  0  0
   13.4761    4.9880   12.6544 C   0  0  0  0  0  0  0  0  0  0  0  0
   11.9411    5.7958   12.2341 S   0  0  0  0  0  0  0  0  0  0  0  0
   10.6347    4.6122   12.4429 C   0  0  0  0  0  0  0  0  0  0  0  0
    9.4051    5.1373   12.3840 N   0  0  0  0  0  0  0  0  0  0  0  0
   10.8495    3.2576   12.7289 C   0  0  0  0  0  0  0  0  0  0  0  0
    9.7130    2.5073   13.0359 C   0  0  0  0  0  0  0  0  0  0  0  0
    8.4767    3.0460   12.9826 N   0  0  0  0  0  0  0  0  0  0  0  0
    8.3998    4.3150   12.6303 C   0  0  0  0  0  0  0  0  0  0  0  0
    7.1531    4.8469   12.5895 N   0  0  0  0  0  0  0  0  0  0  0  0
   11.3188    1.7971   14.9992 H   0  0  0  0  0  0  0  0  0  0  0  0
    7.9751   -0.8413   11.4787 H   0  0  0  0  0  0  0  0  0  0  0  0
    7.1446    0.4765   12.3227 H   0  0  0  0  0  0  0  0  0  0  0  0
    8.4730    0.8220   11.1928 H   0  0  0  0  0  0  0  0  0  0  0  0
    8.7200   -2.1030   13.3822 H   0  0  0  0  0  0  0  0  0  0  0  0
   10.4078   -2.7953   15.4128 C   0  0  1  0  0  0  0  0  0  0  0  0
   12.7823    4.1006   14.4830 H   0  0  0  0  0  0  0  0  0  0  0  0
   16.8881    3.2935   13.4534 H   0  0  0  0  0  0  0  0  0  0  0  0
   16.6557    4.7325   11.4409 H   0  0  0  0  0  0  0  0  0  0  0  0
   14.4758    5.7874   10.9079 H   0  0  0  0  0  0  0  0  0  0  0  0
   11.8291    2.8079   12.7584 H   0  0  0  0  0  0  0  0  0  0  0  0
   13.8552    3.3869   17.2234 C   0  0  1  0  0  0  0  0  0  0  0  0
   15.6122    4.2714   16.3624 H   0  0  0  0  0  0  0  0  0  0  0  0
   15.9849    2.7441   17.0134 H   0  0  0  0  0  0  0  0  0  0  0  0
   11.8063   -1.3043   17.2292 O   0  0  0  0  0  0  0  0  0  0  0  0
   13.1307    0.2034   16.1785 N   0  0  0  0  0  0  0  0  0  0  0  0
   13.2290    0.7591   15.3404 H   0  0  0  0  0  0  0  0  0  0  0  0
   14.1111    0.9366   18.3762 C   0  0  2  0  0  0  0  0  0  0  0  0
   15.1384    0.5261   16.5335 H   0  0  0  0  0  0  0  0  0  0  0  0
   14.5197   -0.8997   17.2934 H   0  0  0  0  0  0  0  0  0  0  0  0
   13.4003    2.3025   18.2577 C   0  0  1  0  0  0  0  0  0  0  0  0
   15.0745    1.0539   18.8676 H   0  0  0  0  0  0  0  0  0  0  0  0
   13.5347    0.3159   19.0689 H   0  0  0  0  0  0  0  0  0  0  0  0
   13.8833    4.3670   17.7101 H   0  0  0  0  0  0  0  0  0  0  0  0
   13.0585    3.4056   16.4571 H   0  0  0  0  0  0  0  0  0  0  0  0
   13.3774    2.7415   19.2630 H   0  0  0  0  0  0  0  0  0  0  0  0
   12.3487    2.0817   18.0504 H   0  0  0  0  0  0  0  0  0  0  0  0
   11.1623   -2.7307   16.1968 H   0  0  0  0  0  0  0  0  0  0  0  0
    9.4634   -3.1263   15.8447 H   0  0  0  0  0  0  0  0  0  0  0  0
   10.7312   -3.5102   14.6562 H   0  0  0  0  0  0  0  0  0  0  0  0
    6.4125    4.0642   12.8105 H   0  0  0  0  0  0  0  0  0  0  0  0
    7.0288    5.8268   12.3786 H   0  0  0  0  0  0  0  0  0  0  0  0
  1  2  2  0
  1  7  1  0
  1 26  1  0
  2  3  1  0
  2 22  1  0
  3  4  1  0
  3  5  2  0
  4 27  1  6
  4 28  1  0
  4 29  1  0
  5  6  1  0
  5 30  1  0
  6  7  2  0
  6 31  1  0
  7  8  1  0
  8 40  2  0
  8 41  1  0
  9 41  1  0
  9 43  1  0
  9 44  1  6
  9 45  1  0
 10 11  1  0
 10 37  1  0
 10 38  1  6
 10 39  1  0
 11 12  1  0
 12 13  1  0
 12 14  2  0
 13 17  2  0
 13 32  1  0
 14 15  1  0
 14 33  1  0
 15 16  2  0
 15 34  1  0
 16 17  1  0
 16 35  1  0
 17 18  1  0
 18 19  1  0
 19 20  1  0
 19 21  2  0
 20 24  2  0
 21 22  1  0
 21 36  1  0
 22 23  2  0
 23 24  1  0
 24 25  1  0
 25 56  1  0
 25 57  1  0
 31 53  1  1
 31 54  1  0
 31 55  1  0
 37 46  1  0
 37 49  1  1
 37 50  1  0
 41 42  1  0
 43 46  1  0
 43 47  1  1
 43 48  1  0
 46 51  1  1
 46 52  1  0
M  END
