12
     RDKit          3D

 54 57  0  0  1  0  0  0  0  0999 V2000
   10.7729    0.9334   14.6221 C   0  0  0  0  0  0  0  0  0  0  0  0
    9.8395    1.1268   13.5942 C   0  0  0  0  0  0  0  0  0  0  0  0
    9.1038    0.0147   13.1276 C   0  0  0  0  0  0  0  0  0  0  0  0
    8.1161    0.1185   11.9683 C   0  0  1  0  0  0  0  0  0  0  0  0
    9.2848   -1.2333   13.7335 C   0  0  0  0  0  0  0  0  0  0  0  0
   10.2177   -1.3998   14.7582 C   0  0  0  0  0  0  0  0  0  0  0  0
   11.0219   -0.3307   15.1696 C   0  0  0  0  0  0  0  0  0  0  0  0
   12.1627   -0.5676   16.1309 C   0  0  0  0  0  0  0  0  0  0  0  0
   14.6230   -0.2021   16.3370 C   0  0  2  0  0  0  0  0  0  0  0  0
   15.7569    2.7802   16.1327 C   0  0  2  0  0  0  0  0  0  0  0  0
   14.8237    2.5932   15.0800 O   0  0  0  0  0  0  0  0  0  0  0  0
   14.8361    3.4992   14.0507 C   0  0  0  0  0  0  0  0  0  0  0  0
   13.6398    4.1589   13.7778 C   0  0  0  0  0  0  0  0  0  0  0  0
   15.9522    3.7124   13.2300 C   0  0  0  0  0  0  0  0  0  0  0  0
   15.8374    4.5323   12.1055 C   0  0  0  0  0  0  0  0  0  0  0  0
   14.6150    5.1317   11.7995 C   0  0  0  0  0  0  0  0  0  0  0  0
   13.5088    4.9405   12.6261 C   0  0  0  0  0  0  0  0  0  0  0  0
   11.9887    5.7514   12.1953 S   0  0  0  0  0  0  0  0  0  0  0  0
   10.6483    4.6117   12.4528 C   0  0  0  0  0  0  0  0  0  0  0  0
    9.4103    5.1530   12.3791 N   0  0  0  0  0  0  0  0  0  0  0  0
   10.8423    3.2593   12.7383 C   0  0  0  0  0  0  0  0  0  0  0  0
    9.7072    2.5062   13.0485 C   0  0  0  0  0  0  0  0  0  0  0  0
    8.4595    3.0339   12.9824 N   0  0  0  0  0  0  0  0  0  0  0  0
    8.3975    4.3181   12.6243 C   0  0  0  0  0  0  0  0  0  0  0  0
    7.1540    4.8527   12.5651 N   0  0  0  0  0  0  0  0  0  0  0  0
   11.3076    1.7957   14.9990 H   0  0  0  0  0  0  0  0  0  0  0  0
    7.9652   -0.8438   11.4766 H   0  0  0  0  0  0  0  0  0  0  0  0
    7.1356    0.4706   12.3261 H   0  0  0  0  0  0  0  0  0  0  0  0
    8.4594    0.8200   11.1952 H   0  0  0  0  0  0  0  0  0  0  0  0
    8.7203   -2.0912   13.3930 H   0  0  0  0  0  0  0  0  0  0  0  0
   10.3819   -2.7814   15.4181 C   0  0  1  0  0  0  0  0  0  0  0  0
   12.8171    4.0288   14.4665 H   0  0  0  0  0  0  0  0  0  0  0  0
   16.9061    3.2416   13.4262 H   0  0  0  0  0  0  0  0  0  0  0  0
   16.6870    4.6861   11.4558 H   0  0  0  0  0  0  0  0  0  0  0  0
   14.5166    5.7485   10.9178 H   0  0  0  0  0  0  0  0  0  0  0  0
   11.8142    2.7960   12.7714 H   0  0  0  0  0  0  0  0  0  0  0  0
   15.1220    2.1732   17.4011 C   0  0  2  0  0  0  0  0  0  0  0  0
   15.9454    3.8439   16.2979 H   0  0  0  0  0  0  0  0  0  0  0  0
   16.7130    2.3113   15.8930 H   0  0  0  0  0  0  0  0  0  0  0  0
   12.1216   -1.4704   16.9630 O   0  0  0  0  0  0  0  0  0  0  0  0
   13.2731    0.1505   15.8981 N   0  0  0  0  0  0  0  0  0  0  0  0
   13.2020    0.9567   15.2994 H   0  0  0  0  0  0  0  0  0  0  0  0
   15.1492    0.6257   17.5278 C   0  0  2  0  0  0  0  0  0  0  0  0
   15.2845   -0.0582   15.4804 H   0  0  0  0  0  0  0  0  0  0  0  0
   14.6906   -1.2684   16.5764 H   0  0  0  0  0  0  0  0  0  0  0  0
   14.0910    2.5234   17.4776 H   0  0  0  0  0  0  0  0  0  0  0  0
   15.6305    2.5911   18.2714 H   0  0  0  0  0  0  0  0  0  0  0  0
   16.1724    0.3068   17.7300 H   0  0  0  0  0  0  0  0  0  0  0  0
   14.5816    0.3406   18.4161 H   0  0  0  0  0  0  0  0  0  0  0  0
   11.1479   -2.7265   16.1916 H   0  0  0  0  0  0  0  0  0  0  0  0
    9.4356   -3.0857   15.8656 H   0  0  0  0  0  0  0  0  0  0  0  0
   10.6784   -3.5115   14.6650 H   0  0  0  0  0  0  0  0  0  0  0  0
    6.4086    4.0737   12.7836 H   0  0  0  0  0  0  0  0  0  0  0  0
    7.0349    5.8312   12.3452 H   0  0  0  0  0  0  0  0  0  0  0  0
  1  2  2  0
  1  7  1  0
  1 26  1  0
  2  3  1  0
  2 22  1  0
  3  4  1  0
  3  5  2  0
  4 27  1  6
  4 28  1  0
  4 29  1  0
  5  6  1  0
  5 30  1  0
  6  7  2  0
  6 31  1  0
  7  8  1  0
  8 40  2  0
  8 41  1  0
  9 41  1  0
  9 43  1  0
  9 44  1  6
  9 45  1  0
 10 11  1  0
 10 37  1  0
 10 38  1  1
 10 39  1  0
 11 12  1  0
 12 13  1  0
 12 14  2  0
 13 17  2  0
 13 32  1  0
 14 15  1  0
 14 33  1  0
 15 16  2  0
 15 34  1  0
 16 17  1  0
 16 35  1  0
 17 18  1  0
 18 19  1  0
 19 20  1  0
 19 21  2  0
 20 24  2  0
 21 22  1  0
 21 36  1  0
 22 23  2  0
 23 24  1  0
 24 25  1  0
 25 53  1  0
 25 54  1  0
 31 50  1  1
 31 51  1  0
 31 52  1  0
 37 43  1  0
 37 46  1  1
 37 47  1  0
 41 42  1  0
 43 48  1  1
 43 49  1  0
M  END
