8, 3VHA
     RDKit          3D

 48 51  0  0  1  0  0  0  0  0999 V2000
   10.7738    0.9608   14.5995 C   0  0  0  0  0  0  0  0  0  0  0  0
    9.8111    1.1389   13.5845 C   0  0  0  0  0  0  0  0  0  0  0  0
    9.0695    0.0077   13.1539 C   0  0  0  0  0  0  0  0  0  0  0  0
    8.0175    0.1174   12.0631 C   0  0  1  0  0  0  0  0  0  0  0  0
    9.3165   -1.2543   13.7405 C   0  0  0  0  0  0  0  0  0  0  0  0
   10.3089   -1.4083   14.7290 C   0  0  0  0  0  0  0  0  0  0  0  0
   11.0630   -0.3025   15.1612 C   0  0  0  0  0  0  0  0  0  0  0  0
   12.0585   -0.5062   16.0980 O   0  0  0  0  0  0  0  0  0  0  0  0
   12.9318    0.5907   16.3520 C   0  0  2  0  0  0  0  0  0  0  0  0
   14.1617    0.1675   17.1605 C   0  0  2  0  0  0  0  0  0  0  0  0
   15.1000    1.3459   17.5051 C   0  0  2  0  0  0  0  0  0  0  0  0
   15.5976    2.1444   16.2846 C   0  0  2  0  0  0  0  0  0  0  0  0
   14.5891    3.0741   15.8929 O   0  0  0  0  0  0  0  0  0  0  0  0
   14.6197    3.6030   14.6189 C   0  0  0  0  0  0  0  0  0  0  0  0
   13.5079    4.3753   14.2189 C   0  0  0  0  0  0  0  0  0  0  0  0
   15.6772    3.4035   13.6968 C   0  0  0  0  0  0  0  0  0  0  0  0
   15.5943    3.9292   12.3921 C   0  0  0  0  0  0  0  0  0  0  0  0
   14.4566    4.6540   11.9897 C   0  0  0  0  0  0  0  0  0  0  0  0
   13.4080    4.8758   12.9017 C   0  0  0  0  0  0  0  0  0  0  0  0
   11.9782    5.7842   12.3788 S   0  0  0  0  0  0  0  0  0  0  0  0
   10.6423    4.6196   12.4978 C   0  0  0  0  0  0  0  0  0  0  0  0
    9.4160    5.1509   12.3800 N   0  0  0  0  0  0  0  0  0  0  0  0
   10.8393    3.2662   12.7825 C   0  0  0  0  0  0  0  0  0  0  0  0
    9.6893    2.5075   13.0391 C   0  0  0  0  0  0  0  0  0  0  0  0
    8.4632    3.0506   12.9235 N   0  0  0  0  0  0  0  0  0  0  0  0
    8.4117    4.3216   12.5782 C   0  0  0  0  0  0  0  0  0  0  0  0
    7.1692    4.8502   12.4558 N   0  0  0  0  0  0  0  0  0  0  0  0
   11.3011    1.8415   14.9299 H   0  0  0  0  0  0  0  0  0  0  0  0
    7.7066   -0.8639   11.7045 H   0  0  0  0  0  0  0  0  0  0  0  0
    7.1350    0.6332   12.4434 H   0  0  0  0  0  0  0  0  0  0  0  0
    8.4001    0.6783   11.2099 H   0  0  0  0  0  0  0  0  0  0  0  0
    8.7547   -2.1207   13.4228 H   0  0  0  0  0  0  0  0  0  0  0  0
   10.5015   -2.3837   15.1517 H   0  0  0  0  0  0  0  0  0  0  0  0
   12.3938    1.3787   16.8819 H   0  0  0  0  0  0  0  0  0  0  0  0
   13.2809    0.9900   15.3994 H   0  0  0  0  0  0  0  0  0  0  0  0
   14.7123   -0.5888   16.6001 H   0  0  0  0  0  0  0  0  0  0  0  0
   13.8355   -0.3138   18.0830 H   0  0  0  0  0  0  0  0  0  0  0  0
   15.9652    0.9419   18.0316 H   0  0  0  0  0  0  0  0  0  0  0  0
   14.6127    2.0221   18.2086 H   0  0  0  0  0  0  0  0  0  0  0  0
   15.8516    1.4427   15.4890 H   0  0  0  0  0  0  0  0  0  0  0  0
   16.5007    2.7002   16.5402 H   0  0  0  0  0  0  0  0  0  0  0  0
   12.7039    4.5464   14.9197 H   0  0  0  0  0  0  0  0  0  0  0  0
   16.5640    2.8494   13.9641 H   0  0  0  0  0  0  0  0  0  0  0  0
   16.4036    3.7697   11.6944 H   0  0  0  0  0  0  0  0  0  0  0  0
   14.3917    5.0458   10.9847 H   0  0  0  0  0  0  0  0  0  0  0  0
   11.8186    2.8251   12.8705 H   0  0  0  0  0  0  0  0  0  0  0  0
    6.4172    4.3247   12.8677 H   0  0  0  0  0  0  0  0  0  0  0  0
    7.1105    5.8544   12.4547 H   0  0  0  0  0  0  0  0  0  0  0  0
  1  2  2  0
  1  7  1  0
  1 28  1  0
  2  3  1  0
  2 24  1  0
  3  4  1  0
  3  5  2  0
  4 29  1  6
  4 30  1  0
  4 31  1  0
  5  6  1  0
  5 32  1  0
  6  7  2  0
  6 33  1  0
  7  8  1  0
  8  9  1  0
  9 10  1  0
  9 34  1  1
  9 35  1  0
 10 11  1  0
 10 36  1  6
 10 37  1  0
 11 12  1  0
 11 38  1  1
 11 39  1  0
 12 13  1  0
 12 40  1  6
 12 41  1  0
 13 14  1  0
 14 15  2  0
 14 16  1  0
 15 19  1  0
 15 42  1  0
 16 17  2  0
 16 43  1  0
 17 18  1  0
 17 44  1  0
 18 19  2  0
 18 45  1  0
 19 20  1  0
 20 21  1  0
 21 22  2  0
 21 23  1  0
 22 26  1  0
 23 24  2  0
 23 46  1  0
 24 25  1  0
 25 26  2  0
 26 27  1  0
 27 47  1  0
 27 48  1  0
M  END
