13
     RDKit          3D

 48 52  0  0  1  0  0  0  0  0999 V2000
    5.8140    1.2984  -21.3321 C   0  0  0  0  0  0  0  0  0  0  0  0
    6.6410    0.8905  -22.3919 C   0  0  0  0  0  0  0  0  0  0  0  0
    6.9005   -0.4600  -22.6162 C   0  0  0  0  0  0  0  0  0  0  0  0
    6.3610   -1.4263  -21.7740 C   0  0  0  0  0  0  0  0  0  0  0  0
    5.5468   -1.0550  -20.6977 C   0  0  0  0  0  0  0  0  0  0  0  0
    5.2661    0.3040  -20.5062 C   0  0  0  0  0  0  0  0  0  0  0  0
    5.0395   -2.0728  -19.7399 C   0  0  0  0  0  0  0  0  0  0  0  0
    5.9111   -2.9359  -19.0673 C   0  0  0  0  0  0  0  0  0  0  0  0
    5.4869   -3.8514  -18.1593 N   0  0  0  0  0  0  0  0  0  0  0  0
    4.1521   -3.9007  -17.9309 C   0  0  0  0  0  0  0  0  0  0  0  0
    3.2186   -3.1264  -18.5389 N   0  0  0  0  0  0  0  0  0  0  0  0
    3.6806   -2.2181  -19.4412 C   0  0  0  0  0  0  0  0  0  0  0  0
    6.6444   -2.7308  -21.9930 F   0  0  0  0  0  0  0  0  0  0  0  0
    5.8963    3.7209  -22.2211 C   0  0  0  0  0  0  0  0  0  0  0  0
    7.0542    4.5139  -22.2915 C   0  0  0  0  0  0  0  0  0  0  0  0
    7.2906    5.2834  -23.4307 C   0  0  0  0  0  0  0  0  0  0  0  0
    6.4419    5.3123  -24.4887 N   0  0  0  0  0  0  0  0  0  0  0  0
    5.3103    4.5540  -24.4273 C   0  0  0  0  0  0  0  0  0  0  0  0
    5.0151    3.7558  -23.3151 C   0  0  0  0  0  0  0  0  0  0  0  0
    4.3774    4.6239  -25.6435 C   0  0  1  0  0  0  0  0  0  0  0  0
    5.0023    4.1706  -26.7284 F   0  0  0  0  0  0  0  0  0  0  0  0
    3.2728    3.8968  -25.4841 F   0  0  0  0  0  0  0  0  0  0  0  0
    4.0187    5.8900  -25.8632 F   0  0  0  0  0  0  0  0  0  0  0  0
    7.1027    1.6108  -23.0520 H   0  0  0  0  0  0  0  0  0  0  0  0
    7.5282   -0.7651  -23.4405 H   0  0  0  0  0  0  0  0  0  0  0  0
    4.6603    0.6002  -19.6650 H   0  0  0  0  0  0  0  0  0  0  0  0
    6.9785   -2.8888  -19.2442 H   0  0  0  0  0  0  0  0  0  0  0  0
    3.8070   -4.6166  -17.1939 H   0  0  0  0  0  0  0  0  0  0  0  0
    2.9436   -1.5863  -19.9211 H   0  0  0  0  0  0  0  0  0  0  0  0
    7.7822    4.5401  -21.4964 H   0  0  0  0  0  0  0  0  0  0  0  0
    8.1844    5.8895  -23.5057 H   0  0  0  0  0  0  0  0  0  0  0  0
    4.1132    3.1579  -23.3035 H   0  0  0  0  0  0  0  0  0  0  0  0
    8.1211    3.3495  -18.1295 N   0  0  0  0  0  0  0  0  0  0  0  0
    7.6569    3.0230  -19.3657 C   0  0  0  0  0  0  0  0  0  0  0  0
    6.3088    3.1408  -19.7218 C   0  0  0  0  0  0  0  0  0  0  0  0
    5.4145    3.5662  -18.7408 C   0  0  0  0  0  0  0  0  0  0  0  0
    5.8623    3.9113  -17.4643 C   0  0  0  0  0  0  0  0  0  0  0  0
    7.2281    3.7900  -17.2019 C   0  0  0  0  0  0  0  0  0  0  0  0
    5.1754    4.2444  -16.6975 H   0  0  0  0  0  0  0  0  0  0  0  0
    4.1033    3.5345  -19.3284 C   0  0  0  0  0  0  0  0  0  0  0  0
    4.2042    3.0815  -20.5673 N   0  0  0  0  0  0  0  0  0  0  0  0
    5.5776    2.7987  -21.0169 C   0  0  2  0  0  0  0  0  0  0  0  0
    2.9686    3.8740  -18.7491 N   0  0  0  0  0  0  0  0  0  0  0  0
    8.3904    2.6534  -20.0704 H   0  0  0  0  0  0  0  0  0  0  0  0
    7.6223    4.0365  -16.2245 H   0  0  0  0  0  0  0  0  0  0  0  0
    2.8262    4.1197  -17.7580 H   0  0  0  0  0  0  0  0  0  0  0  0
    2.0713    3.8048  -19.2885 H   0  0  0  0  0  0  0  0  0  0  0  0
    3.3743    3.0426  -21.1673 H   0  0  0  0  0  0  0  0  0  0  0  0
 42  1  1  6
  1  6  2  0
  1  2  1  0
  2  3  2  0
  2 24  1  0
  3  4  1  0
  3 25  1  0
  4  5  2  0
  4 13  1  0
  5  6  1  0
  5  7  1  0
  6 26  1  0
  7 12  2  0
  7  8  1  0
  8  9  2  0
  8 27  1  0
  9 10  1  0
 10 28  1  0
 10 11  2  0
 11 12  1  0
 12 29  1  0
 14 15  1  0
 14 19  2  0
 14 42  1  0
 15 30  1  0
 15 16  2  0
 16 17  1  0
 16 31  1  0
 17 18  2  0
 18 19  1  0
 18 20  1  0
 19 32  1  0
 20 22  1  1
 20 21  1  0
 20 23  1  0
 33 38  2  0
 33 34  1  0
 34 35  2  0
 34 44  1  0
 35 42  1  0
 35 36  1  0
 36 37  2  0
 36 40  1  0
 37 38  1  0
 37 39  1  0
 38 45  1  0
 40 43  1  0
 40 41  2  0
 41 42  1  0
 41 48  1  0
 43 46  1  0
 43 47  1  0
M  CHG  1  41   1
M  END
