20
     RDKit          3D

 49 53  0  0  1  0  0  0  0  0999 V2000
    5.7111    1.3323  -21.3915 C   0  0  0  0  0  0  0  0  0  0  0  0
    6.5729    0.9266  -22.4239 C   0  0  0  0  0  0  0  0  0  0  0  0
    6.8510   -0.4218  -22.6360 C   0  0  0  0  0  0  0  0  0  0  0  0
    6.2962   -1.3892  -21.8057 C   0  0  0  0  0  0  0  0  0  0  0  0
    5.4459   -1.0220  -20.7555 C   0  0  0  0  0  0  0  0  0  0  0  0
    5.1420    0.3355  -20.5829 C   0  0  0  0  0  0  0  0  0  0  0  0
    4.9335   -2.0406  -19.7995 C   0  0  0  0  0  0  0  0  0  0  0  0
    5.8010   -2.9135  -19.1333 C   0  0  0  0  0  0  0  0  0  0  0  0
    5.3746   -3.8281  -18.2254 N   0  0  0  0  0  0  0  0  0  0  0  0
    4.0413   -3.8656  -17.9881 C   0  0  0  0  0  0  0  0  0  0  0  0
    3.1113   -3.0805  -18.5875 N   0  0  0  0  0  0  0  0  0  0  0  0
    3.5758   -2.1746  -19.4916 C   0  0  0  0  0  0  0  0  0  0  0  0
    6.6036   -2.6910  -22.0090 F   0  0  0  0  0  0  0  0  0  0  0  0
    5.7931    3.7535  -22.2871 C   0  0  0  0  0  0  0  0  0  0  0  0
    6.9460    4.5541  -22.3700 C   0  0  0  0  0  0  0  0  0  0  0  0
    7.1708    5.3221  -23.5111 C   0  0  0  0  0  0  0  0  0  0  0  0
    6.3137    5.3441  -24.5612 N   0  0  0  0  0  0  0  0  0  0  0  0
    5.1862    4.5804  -24.4869 C   0  0  0  0  0  0  0  0  0  0  0  0
    4.9022    3.7823  -23.3711 C   0  0  0  0  0  0  0  0  0  0  0  0
    4.2444    4.6502  -25.6933 C   0  0  1  0  0  0  0  0  0  0  0  0
    4.8812    4.2594  -26.7959 F   0  0  0  0  0  0  0  0  0  0  0  0
    3.1689    3.8779  -25.5522 F   0  0  0  0  0  0  0  0  0  0  0  0
    3.8393    5.9089  -25.8655 F   0  0  0  0  0  0  0  0  0  0  0  0
    7.0527    1.6511  -23.0659 H   0  0  0  0  0  0  0  0  0  0  0  0
    7.5081   -0.7237  -23.4383 H   0  0  0  0  0  0  0  0  0  0  0  0
    4.5082    0.6335  -19.7643 H   0  0  0  0  0  0  0  0  0  0  0  0
    6.8678   -2.8747  -19.3152 H   0  0  0  0  0  0  0  0  0  0  0  0
    3.6955   -4.5823  -17.2518 H   0  0  0  0  0  0  0  0  0  0  0  0
    2.8423   -1.5345  -19.9652 H   0  0  0  0  0  0  0  0  0  0  0  0
    7.6800    4.5860  -21.5808 H   0  0  0  0  0  0  0  0  0  0  0  0
    8.0610    5.9324  -23.5929 H   0  0  0  0  0  0  0  0  0  0  0  0
    4.0039    3.1805  -23.3430 H   0  0  0  0  0  0  0  0  0  0  0  0
    8.1719    3.4011  -18.3188 C   0  0  0  0  0  0  0  0  0  0  0  0
    7.6478    3.0063  -19.5476 C   0  0  0  0  0  0  0  0  0  0  0  0
    6.2849    3.1737  -19.8159 C   0  0  0  0  0  0  0  0  0  0  0  0
    5.4510    3.6840  -18.8190 C   0  0  0  0  0  0  0  0  0  0  0  0
    5.9750    4.1043  -17.5951 C   0  0  0  0  0  0  0  0  0  0  0  0
    7.3394    3.9600  -17.3497 C   0  0  0  0  0  0  0  0  0  0  0  0
    5.1975    4.6612  -16.6441 F   0  0  0  0  0  0  0  0  0  0  0  0
    4.1118    3.6414  -19.3434 C   0  0  0  0  0  0  0  0  0  0  0  0
    4.1507    3.1468  -20.5588 N   0  0  0  0  0  0  0  0  0  0  0  0
    5.4928    2.8354  -21.0733 C   0  0  2  0  0  0  0  0  0  0  0  0
    2.9996    3.9896  -18.7614 N   0  0  0  0  0  0  0  0  0  0  0  0
    9.2243    3.2778  -18.1240 H   0  0  0  0  0  0  0  0  0  0  0  0
    8.3057    2.5774  -20.2913 H   0  0  0  0  0  0  0  0  0  0  0  0
    7.7486    4.2762  -16.4016 H   0  0  0  0  0  0  0  0  0  0  0  0
    2.1052    3.8709  -19.2871 H   0  0  0  0  0  0  0  0  0  0  0  0
    2.8935    4.2337  -17.7684 H   0  0  0  0  0  0  0  0  0  0  0  0
    3.2617    3.1410  -21.1030 H   0  0  0  0  0  0  0  0  0  0  0  0
 42  1  1  6
  1  6  2  0
  1  2  1  0
  2  3  2  0
  2 24  1  0
  3  4  1  0
  3 25  1  0
  4  5  2  0
  4 13  1  0
  5  6  1  0
  5  7  1  0
  6 26  1  0
  7 12  2  0
  7  8  1  0
  8  9  2  0
  8 27  1  0
  9 10  1  0
 10 28  1  0
 10 11  2  0
 11 12  1  0
 12 29  1  0
 14 15  1  0
 14 19  2  0
 14 42  1  0
 15 30  1  0
 15 16  2  0
 16 17  1  0
 16 31  1  0
 17 18  2  0
 18 19  1  0
 18 20  1  0
 19 32  1  0
 20 22  1  1
 20 21  1  0
 20 23  1  0
 33 44  1  0
 33 38  2  0
 33 34  1  0
 34 35  2  0
 34 45  1  0
 35 36  1  0
 35 42  1  0
 36 37  2  0
 36 40  1  0
 37 38  1  0
 37 39  1  0
 38 46  1  0
 40 43  1  0
 40 41  2  0
 41 42  1  0
 41 49  1  0
 43 48  1  0
 43 47  1  0
M  CHG  1  41   1
M  END
