19
     RDKit          3D

 48 52  0  0  1  0  0  0  0  0999 V2000
    5.7798    1.2748  -21.3932 C   0  0  0  0  0  0  0  0  0  0  0  0
    6.6138    0.8564  -22.4428 C   0  0  0  0  0  0  0  0  0  0  0  0
    6.8744   -0.4961  -22.6520 C   0  0  0  0  0  0  0  0  0  0  0  0
    6.3285   -1.4536  -21.8040 C   0  0  0  0  0  0  0  0  0  0  0  0
    5.5049   -1.0715  -20.7381 C   0  0  0  0  0  0  0  0  0  0  0  0
    5.2213    0.2895  -20.5634 C   0  0  0  0  0  0  0  0  0  0  0  0
    4.9944   -2.0793  -19.7711 C   0  0  0  0  0  0  0  0  0  0  0  0
    5.8625   -2.9466  -19.0990 C   0  0  0  0  0  0  0  0  0  0  0  0
    5.4364   -3.8536  -18.1835 N   0  0  0  0  0  0  0  0  0  0  0  0
    4.1030   -3.8896  -17.9458 C   0  0  0  0  0  0  0  0  0  0  0  0
    3.1725   -3.1095  -18.5510 N   0  0  0  0  0  0  0  0  0  0  0  0
    3.6365   -2.2099  -19.4612 C   0  0  0  0  0  0  0  0  0  0  0  0
    6.6165   -2.7598  -22.0061 F   0  0  0  0  0  0  0  0  0  0  0  0
    5.8664    3.6934  -22.2998 C   0  0  0  0  0  0  0  0  0  0  0  0
    7.0282    4.4803  -22.3924 C   0  0  0  0  0  0  0  0  0  0  0  0
    7.2445    5.2570  -23.5294 C   0  0  0  0  0  0  0  0  0  0  0  0
    6.3728    5.2977  -24.5668 N   0  0  0  0  0  0  0  0  0  0  0  0
    5.2400    4.5434  -24.4861 C   0  0  0  0  0  0  0  0  0  0  0  0
    4.9617    3.7391  -23.3734 C   0  0  0  0  0  0  0  0  0  0  0  0
    4.2882    4.6266  -25.6842 C   0  0  1  0  0  0  0  0  0  0  0  0
    4.9076    4.2131  -26.7882 F   0  0  0  0  0  0  0  0  0  0  0  0
    3.1995    3.8764  -25.5268 F   0  0  0  0  0  0  0  0  0  0  0  0
    3.9064    5.8917  -25.8637 F   0  0  0  0  0  0  0  0  0  0  0  0
    7.0833    1.5712  -23.1032 H   0  0  0  0  0  0  0  0  0  0  0  0
    7.5090   -0.8090  -23.4679 H   0  0  0  0  0  0  0  0  0  0  0  0
    4.6093    0.5937  -19.7294 H   0  0  0  0  0  0  0  0  0  0  0  0
    6.9291   -2.9101  -19.2830 H   0  0  0  0  0  0  0  0  0  0  0  0
    3.7569   -4.6003  -17.2039 H   0  0  0  0  0  0  0  0  0  0  0  0
    2.9026   -1.5731  -19.9389 H   0  0  0  0  0  0  0  0  0  0  0  0
    7.7750    4.5018  -21.6148 H   0  0  0  0  0  0  0  0  0  0  0  0
    8.1392    5.8598  -23.6185 H   0  0  0  0  0  0  0  0  0  0  0  0
    4.0545    3.1496  -23.3438 H   0  0  0  0  0  0  0  0  0  0  0  0
    8.2529    3.3273  -18.3414 N   0  0  0  0  0  0  0  0  0  0  0  0
    7.7108    2.9572  -19.5309 C   0  0  0  0  0  0  0  0  0  0  0  0
    6.3525    3.1212  -19.8281 C   0  0  0  0  0  0  0  0  0  0  0  0
    5.5175    3.6296  -18.8326 C   0  0  0  0  0  0  0  0  0  0  0  0
    6.0538    4.0374  -17.6083 C   0  0  0  0  0  0  0  0  0  0  0  0
    7.4250    3.8685  -17.4071 C   0  0  0  0  0  0  0  0  0  0  0  0
    5.2941    4.5896  -16.6402 F   0  0  0  0  0  0  0  0  0  0  0  0
    4.1756    3.5903  -19.3586 C   0  0  0  0  0  0  0  0  0  0  0  0
    4.2174    3.0896  -20.5839 N   0  0  0  0  0  0  0  0  0  0  0  0
    5.5659    2.7787  -21.0851 C   0  0  2  0  0  0  0  0  0  0  0  0
    3.0587    3.9500  -18.7528 N   0  0  0  0  0  0  0  0  0  0  0  0
    8.3913    2.5263  -20.2535 H   0  0  0  0  0  0  0  0  0  0  0  0
    7.8722    4.1685  -16.4705 H   0  0  0  0  0  0  0  0  0  0  0  0
    2.9584    4.2140  -17.7617 H   0  0  0  0  0  0  0  0  0  0  0  0
    2.1462    3.8544  -19.2568 H   0  0  0  0  0  0  0  0  0  0  0  0
    3.3634    3.0425  -21.1496 H   0  0  0  0  0  0  0  0  0  0  0  0
 42  1  1  6
  1  6  2  0
  1  2  1  0
  2  3  2  0
  2 24  1  0
  3  4  1  0
  3 25  1  0
  4  5  2  0
  4 13  1  0
  5  6  1  0
  5  7  1  0
  6 26  1  0
  7 12  2  0
  7  8  1  0
  8  9  2  0
  8 27  1  0
  9 10  1  0
 10 28  1  0
 10 11  2  0
 11 12  1  0
 12 29  1  0
 14 15  1  0
 14 19  2  0
 14 42  1  0
 15 30  1  0
 15 16  2  0
 16 17  1  0
 16 31  1  0
 17 18  2  0
 18 19  1  0
 18 20  1  0
 19 32  1  0
 20 22  1  1
 20 21  1  0
 20 23  1  0
 33 38  2  0
 33 34  1  0
 34 35  2  0
 34 44  1  0
 35 42  1  0
 35 36  1  0
 36 37  2  0
 36 40  1  0
 37 38  1  0
 37 39  1  0
 38 45  1  0
 40 43  1  0
 40 41  2  0
 41 42  1  0
 41 48  1  0
 43 46  1  0
 43 47  1  0
M  CHG  1  41   1
M  END
