22
     RDKit          3D

 50 54  0  0  1  0  0  0  0  0999 V2000
    5.8088    1.5577  -21.2153 C   0  0  0  0  0  0  0  0  0  0  0  0
    6.7054    1.1962  -22.2361 C   0  0  0  0  0  0  0  0  0  0  0  0
    7.0149   -0.1396  -22.4801 C   0  0  0  0  0  0  0  0  0  0  0  0
    6.4591   -1.1406  -21.6925 C   0  0  0  0  0  0  0  0  0  0  0  0
    5.5782   -0.8205  -20.6527 C   0  0  0  0  0  0  0  0  0  0  0  0
    5.2466    0.5267  -20.4455 C   0  0  0  0  0  0  0  0  0  0  0  0
    5.0532   -1.8840  -19.7540 C   0  0  0  0  0  0  0  0  0  0  0  0
    5.9161   -2.7400  -19.0605 C   0  0  0  0  0  0  0  0  0  0  0  0
    5.4754   -3.7034  -18.2111 N   0  0  0  0  0  0  0  0  0  0  0  0
    4.1327   -3.8092  -18.0635 C   0  0  0  0  0  0  0  0  0  0  0  0
    3.2078   -3.0455  -18.6976 N   0  0  0  0  0  0  0  0  0  0  0  0
    3.6860   -2.0894  -19.5412 C   0  0  0  0  0  0  0  0  0  0  0  0
    6.7927   -2.4302  -21.9295 F   0  0  0  0  0  0  0  0  0  0  0  0
    5.7843    3.9623  -22.1272 C   0  0  0  0  0  0  0  0  0  0  0  0
    6.8898    4.8267  -22.2004 C   0  0  0  0  0  0  0  0  0  0  0  0
    7.1141    5.5581  -23.3667 C   0  0  0  0  0  0  0  0  0  0  0  0
    6.3004    5.4845  -24.4497 N   0  0  0  0  0  0  0  0  0  0  0  0
    5.2134    4.6636  -24.3818 C   0  0  0  0  0  0  0  0  0  0  0  0
    4.9333    3.8983  -23.2426 C   0  0  0  0  0  0  0  0  0  0  0  0
    4.3106    4.6288  -25.6208 C   0  0  1  0  0  0  0  0  0  0  0  0
    4.9891    4.1785  -26.6750 F   0  0  0  0  0  0  0  0  0  0  0  0
    3.2484    3.8420  -25.4599 F   0  0  0  0  0  0  0  0  0  0  0  0
    3.8809    5.8614  -25.8934 F   0  0  0  0  0  0  0  0  0  0  0  0
    7.1821    1.9453  -22.8520 H   0  0  0  0  0  0  0  0  0  0  0  0
    7.6977   -0.4056  -23.2732 H   0  0  0  0  0  0  0  0  0  0  0  0
    4.5805    0.7897  -19.6416 H   0  0  0  0  0  0  0  0  0  0  0  0
    6.9892   -2.6493  -19.1741 H   0  0  0  0  0  0  0  0  0  0  0  0
    3.7737   -4.5656  -17.3742 H   0  0  0  0  0  0  0  0  0  0  0  0
    2.9546   -1.4685  -20.0432 H   0  0  0  0  0  0  0  0  0  0  0  0
    7.5897    4.9279  -21.3864 H   0  0  0  0  0  0  0  0  0  0  0  0
    7.9712    6.2146  -23.4440 H   0  0  0  0  0  0  0  0  0  0  0  0
    4.0724    3.2434  -23.2232 H   0  0  0  0  0  0  0  0  0  0  0  0
    8.0270    3.8733  -18.0569 C   0  0  0  0  0  0  0  0  0  0  0  0
    7.5779    3.4048  -19.2903 C   0  0  0  0  0  0  0  0  0  0  0  0
    6.2172    3.4623  -19.6125 C   0  0  0  0  0  0  0  0  0  0  0  0
    5.3086    3.9345  -18.6548 C   0  0  0  0  0  0  0  0  0  0  0  0
    5.7568    4.4305  -17.4227 C   0  0  0  0  0  0  0  0  0  0  0  0
    7.1195    4.3975  -17.1368 C   0  0  0  0  0  0  0  0  0  0  0  0
    4.9355    5.0013  -16.4821 O   0  0  0  0  0  0  0  0  0  0  0  0
    4.0083    3.7845  -19.2480 C   0  0  0  0  0  0  0  0  0  0  0  0
    4.1301    3.2835  -20.4527 N   0  0  0  0  0  0  0  0  0  0  0  0
    5.5057    3.0504  -20.9030 C   0  0  2  0  0  0  0  0  0  0  0  0
    2.8467    4.0454  -18.7372 N   0  0  0  0  0  0  0  0  0  0  0  0
    9.0798    3.8427  -17.8193 H   0  0  0  0  0  0  0  0  0  0  0  0
    8.2950    3.0115  -19.9985 H   0  0  0  0  0  0  0  0  0  0  0  0
    7.4757    4.7777  -16.1906 H   0  0  0  0  0  0  0  0  0  0  0  0
    1.9969    3.8856  -19.3290 H   0  0  0  0  0  0  0  0  0  0  0  0
    2.6202    4.2344  -17.7482 H   0  0  0  0  0  0  0  0  0  0  0  0
    3.2671    3.2193  -21.0320 H   0  0  0  0  0  0  0  0  0  0  0  0
    3.9702    4.7881  -16.4550 H   0  0  0  0  0  0  0  0  0  0  0  0
 42  1  1  6
  1  6  2  0
  1  2  1  0
  2  3  2  0
  2 24  1  0
  3  4  1  0
  3 25  1  0
  4  5  2  0
  4 13  1  0
  5  6  1  0
  5  7  1  0
  6 26  1  0
  7 12  2  0
  7  8  1  0
  8  9  2  0
  8 27  1  0
  9 10  1  0
 10 28  1  0
 10 11  2  0
 11 12  1  0
 12 29  1  0
 14 15  1  0
 14 19  2  0
 14 42  1  0
 15 30  1  0
 15 16  2  0
 16 17  1  0
 16 31  1  0
 17 18  2  0
 18 19  1  0
 18 20  1  0
 19 32  1  0
 20 22  1  1
 20 21  1  0
 20 23  1  0
 33 44  1  0
 33 38  2  0
 33 34  1  0
 34 35  2  0
 34 45  1  0
 35 36  1  0
 35 42  1  0
 36 37  2  0
 36 40  1  0
 37 38  1  0
 37 39  1  0
 38 46  1  0
 39 50  1  0
 40 43  1  0
 40 41  2  0
 41 42  1  0
 41 49  1  0
 43 48  1  0
 43 47  1  0
M  CHG  1  41   1
M  END
