12
     RDKit          3D

 48 52  0  0  1  0  0  0  0  0999 V2000
    5.7847    1.2702  -21.3653 C   0  0  0  0  0  0  0  0  0  0  0  0
    6.6171    0.8570  -22.4185 C   0  0  0  0  0  0  0  0  0  0  0  0
    6.8786   -0.4945  -22.6339 C   0  0  0  0  0  0  0  0  0  0  0  0
    6.3358   -1.4564  -21.7887 C   0  0  0  0  0  0  0  0  0  0  0  0
    5.5151   -1.0795  -20.7190 C   0  0  0  0  0  0  0  0  0  0  0  0
    5.2310    0.2802  -20.5380 C   0  0  0  0  0  0  0  0  0  0  0  0
    5.0080   -2.0904  -19.7537 C   0  0  0  0  0  0  0  0  0  0  0  0
    5.8794   -2.9545  -19.0819 C   0  0  0  0  0  0  0  0  0  0  0  0
    5.4567   -3.8618  -18.1651 N   0  0  0  0  0  0  0  0  0  0  0  0
    4.1235   -3.9017  -17.9263 C   0  0  0  0  0  0  0  0  0  0  0  0
    3.1900   -3.1256  -18.5322 N   0  0  0  0  0  0  0  0  0  0  0  0
    3.6506   -2.2258  -19.4437 C   0  0  0  0  0  0  0  0  0  0  0  0
    6.6240   -2.7615  -21.9971 F   0  0  0  0  0  0  0  0  0  0  0  0
    5.8788    3.6926  -22.2564 C   0  0  0  0  0  0  0  0  0  0  0  0
    7.0461    4.4714  -22.3341 C   0  0  0  0  0  0  0  0  0  0  0  0
    7.2812    5.2453  -23.4700 C   0  0  0  0  0  0  0  0  0  0  0  0
    6.4227    5.2906  -24.5192 N   0  0  0  0  0  0  0  0  0  0  0  0
    5.2838    4.5439  -24.4521 C   0  0  0  0  0  0  0  0  0  0  0  0
    4.9882    3.7433  -23.3415 C   0  0  0  0  0  0  0  0  0  0  0  0
    4.3444    4.6287  -25.6615 C   0  0  1  0  0  0  0  0  0  0  0  0
    4.9650    4.1905  -26.7552 F   0  0  0  0  0  0  0  0  0  0  0  0
    3.2414    3.8986  -25.5057 F   0  0  0  0  0  0  0  0  0  0  0  0
    3.9842    5.8975  -25.8617 F   0  0  0  0  0  0  0  0  0  0  0  0
    7.0842    1.5748  -23.0775 H   0  0  0  0  0  0  0  0  0  0  0  0
    7.5120   -0.8031  -23.4525 H   0  0  0  0  0  0  0  0  0  0  0  0
    4.6222    0.5803  -19.7005 H   0  0  0  0  0  0  0  0  0  0  0  0
    6.9458   -2.9143  -19.2664 H   0  0  0  0  0  0  0  0  0  0  0  0
    3.7801   -4.6114  -17.1826 H   0  0  0  0  0  0  0  0  0  0  0  0
    2.9138   -1.5927  -19.9220 H   0  0  0  0  0  0  0  0  0  0  0  0
    7.7827    4.4824  -21.5464 H   0  0  0  0  0  0  0  0  0  0  0  0
    8.1818    5.8406  -23.5497 H   0  0  0  0  0  0  0  0  0  0  0  0
    4.0794    3.1562  -23.3244 H   0  0  0  0  0  0  0  0  0  0  0  0
    8.0864    3.3267  -18.1459 C   0  0  0  0  0  0  0  0  0  0  0  0
    7.6665    2.9686  -19.4293 C   0  0  0  0  0  0  0  0  0  0  0  0
    6.3159    3.1065  -19.7699 C   0  0  0  0  0  0  0  0  0  0  0  0
    5.4431    3.5599  -18.7860 C   0  0  0  0  0  0  0  0  0  0  0  0
    5.8240    3.9260  -17.5323 N   0  0  0  0  0  0  0  0  0  0  0  0
    7.1434    3.8042  -17.2314 C   0  0  0  0  0  0  0  0  0  0  0  0
    4.1125    3.5343  -19.3456 C   0  0  0  0  0  0  0  0  0  0  0  0
    4.1959    3.0686  -20.5821 N   0  0  0  0  0  0  0  0  0  0  0  0
    5.5612    2.7720  -21.0511 C   0  0  2  0  0  0  0  0  0  0  0  0
    2.9809    3.8842  -18.7585 N   0  0  0  0  0  0  0  0  0  0  0  0
    9.1214    3.2288  -17.8643 H   0  0  0  0  0  0  0  0  0  0  0  0
    8.3844    2.5829  -20.1396 H   0  0  0  0  0  0  0  0  0  0  0  0
    7.4423    4.0854  -16.2296 H   0  0  0  0  0  0  0  0  0  0  0  0
    3.3582    3.0340  -21.1728 H   0  0  0  0  0  0  0  0  0  0  0  0
    2.0768    3.8122  -19.2856 H   0  0  0  0  0  0  0  0  0  0  0  0
    2.8658    4.1364  -17.7670 H   0  0  0  0  0  0  0  0  0  0  0  0
 41  1  1  6
  1  6  2  0
  1  2  1  0
  2  3  2  0
  2 24  1  0
  3  4  1  0
  3 25  1  0
  4  5  2  0
  4 13  1  0
  5  6  1  0
  5  7  1  0
  6 26  1  0
  7 12  2  0
  7  8  1  0
  8  9  2  0
  8 27  1  0
  9 10  1  0
 10 28  1  0
 10 11  2  0
 11 12  1  0
 12 29  1  0
 14 15  1  0
 14 19  2  0
 14 41  1  0
 15 30  1  0
 15 16  2  0
 16 17  1  0
 16 31  1  0
 17 18  2  0
 18 19  1  0
 18 20  1  0
 19 32  1  0
 20 22  1  1
 20 21  1  0
 20 23  1  0
 33 43  1  0
 33 38  2  0
 33 34  1  0
 34 35  2  0
 34 44  1  0
 35 36  1  0
 35 41  1  0
 36 37  2  0
 36 39  1  0
 37 38  1  0
 38 45  1  0
 39 42  1  0
 39 40  2  0
 40 41  1  0
 40 46  1  0
 42 48  1  0
 42 47  1  0
M  CHG  1  40   1
M  END
