23
     RDKit          3D

 54 57  0  0  1  0  0  0  0  0999 V2000
   26.9470   15.3250    9.1860 C   0  0  0  0  0  0  0  0  0  0  0  0
   27.6320   14.0950    9.0140 C   0  0  0  0  0  0  0  0  0  0  0  0
   28.7000   14.0480    9.1690 H   0  0  0  0  0  0  0  0  0  0  0  0
   26.9220   12.9310    8.6410 C   0  0  0  0  0  0  0  0  0  0  0  0
   27.4460   11.9960    8.5080 H   0  0  0  0  0  0  0  0  0  0  0  0
   25.5210   12.9940    8.4420 C   0  0  0  0  0  0  0  0  0  0  0  0
   24.8260   14.2190    8.6190 C   0  0  0  0  0  0  0  0  0  0  0  0
   25.5440   15.3800    8.9820 C   0  0  0  0  0  0  0  0  0  0  0  0
   25.0210   16.3170    9.1050 H   0  0  0  0  0  0  0  0  0  0  0  0
   24.8500   11.8510    8.0940 O   0  0  0  0  0  0  0  0  0  0  0  0
   23.4360   11.7100    8.2520 C   0  0  1  0  0  0  0  0  0  0  0  0
   22.7180   13.0050    7.7980 C   0  0  2  0  0  0  0  0  0  0  0  0
   21.6740   12.9400    8.1030 H   0  0  0  0  0  0  0  0  0  0  0  0
   22.7760   13.0630    6.7110 H   0  0  0  0  0  0  0  0  0  0  0  0
   23.3110   14.3040    8.3820 C   0  0  2  0  0  0  0  0  0  0  0  0
   23.0360   15.4900    7.4390 C   0  0  0  0  0  0  0  0  0  0  0  0
   22.3290   16.4140    8.1240 N   0  0  0  0  0  0  0  0  0  0  0  0
   22.0880   15.9170    9.3720 C   0  0  0  0  0  0  0  0  0  0  0  0
   22.5740   14.7390    9.5680 N   0  0  0  0  0  0  0  0  0  0  0  0
   22.4630   14.1980   10.4140 H   0  0  0  0  0  0  0  0  0  0  0  0
   27.6390   16.5060    9.5380 C   0  0  0  0  0  0  0  0  0  0  0  0
   21.9330   17.7200    7.5940 C   0  0  2  0  0  0  0  0  0  0  0  0
   22.2760   17.8130    6.5640 H   0  0  0  0  0  0  0  0  0  0  0  0
   22.3810   18.5090    8.1990 H   0  0  0  0  0  0  0  0  0  0  0  0
   20.8470   17.8110    7.6250 H   0  0  0  0  0  0  0  0  0  0  0  0
   21.3210   16.6530   10.2630 N   0  0  0  0  0  0  0  0  0  0  0  0
   21.0940   16.2700   11.1700 H   0  0  0  0  0  0  0  0  0  0  0  0
   20.9900   17.5720   10.0050 H   0  0  0  0  0  0  0  0  0  0  0  0
   27.0450   17.4570   10.4030 C   0  0  0  0  0  0  0  0  0  0  0  0
   26.0630   17.2760   10.8140 H   0  0  0  0  0  0  0  0  0  0  0  0
   27.7420   18.6460   10.7270 C   0  0  0  0  0  0  0  0  0  0  0  0
   29.0290   18.9000   10.1880 C   0  0  0  0  0  0  0  0  0  0  0  0
   29.5540   19.8090   10.4410 H   0  0  0  0  0  0  0  0  0  0  0  0
   29.6220   17.9540    9.3150 C   0  0  0  0  0  0  0  0  0  0  0  0
   30.6020   18.1380    8.9010 H   0  0  0  0  0  0  0  0  0  0  0  0
   28.9240   16.7660    8.9880 C   0  0  0  0  0  0  0  0  0  0  0  0
   29.3720   16.0510    8.3140 H   0  0  0  0  0  0  0  0  0  0  0  0
   23.5150   15.6060    6.3060 O   0  0  0  0  0  0  0  0  0  0  0  0
   23.0150   10.5220    7.3590 C   0  0  2  0  0  0  0  0  0  0  0  0
   23.2670   10.7410    6.3210 H   0  0  0  0  0  0  0  0  0  0  0  0
   21.9400   10.3650    7.4470 H   0  0  0  0  0  0  0  0  0  0  0  0
   23.5410    9.6230    7.6790 H   0  0  0  0  0  0  0  0  0  0  0  0
   23.0750   11.3910    9.7230 C   0  0  2  0  0  0  0  0  0  0  0  0
   23.3700   12.2260   10.3590 H   0  0  0  0  0  0  0  0  0  0  0  0
   23.6010   10.4900   10.0390 H   0  0  0  0  0  0  0  0  0  0  0  0
   22.0000   11.2320    9.8070 H   0  0  0  0  0  0  0  0  0  0  0  0
   27.1410   19.6160   11.5850 O   0  0  0  0  0  0  0  0  0  0  0  0
   27.9590   20.7470   11.8850 C   0  0  2  0  0  0  0  0  0  0  0  0
   27.2460   21.6350   12.7470 C   0  0  2  0  0  0  0  0  0  0  0  0
   26.3350   21.9680   12.2510 H   0  0  0  0  0  0  0  0  0  0  0  0
   27.8710   22.4980   12.9760 H   0  0  0  0  0  0  0  0  0  0  0  0
   26.9890   21.1170   13.6710 H   0  0  0  0  0  0  0  0  0  0  0  0
   28.2170   21.2640   10.9610 H   0  0  0  0  0  0  0  0  0  0  0  0
   28.8710   20.4140   12.3810 H   0  0  0  0  0  0  0  0  0  0  0  0
  1  2  1  0
  1  8  2  0
  1 21  1  0
  2  3  1  0
  2  4  2  0
  4  5  1  0
  4  6  1  0
  6  7  2  0
  6 10  1  0
  7  8  1  0
  7 15  1  0
  8  9  1  0
 11 10  1  1
 11 12  1  0
 11 39  1  0
 11 43  1  0
 12 13  1  6
 12 14  1  0
 12 15  1  0
 15 16  1  6
 15 19  1  0
 16 17  1  0
 16 38  2  0
 17 18  1  0
 17 22  1  0
 18 19  2  0
 18 26  1  0
 19 20  1  0
 21 29  1  0
 21 36  2  0
 22 23  1  6
 22 24  1  0
 22 25  1  0
 26 27  1  0
 26 28  1  0
 29 30  1  0
 29 31  2  0
 31 32  1  0
 31 47  1  0
 32 33  1  0
 32 34  2  0
 34 35  1  0
 34 36  1  0
 36 37  1  0
 39 40  1  6
 39 41  1  0
 39 42  1  0
 43 44  1  1
 43 45  1  0
 43 46  1  0
 47 48  1  0
 48 49  1  0
 48 53  1  6
 48 54  1  0
 49 50  1  6
 49 51  1  0
 49 52  1  0
M  CHG  1  19   1
M  END
