9R
     RDKit          3D

 49 52  0  0  1  0  0  0  0  0999 V2000
    5.8530    1.2780  -21.3161 C   0  0  0  0  0  0  0  0  0  0  0  0
    6.6903    0.8508  -22.3614 C   0  0  0  0  0  0  0  0  0  0  0  0
    6.9461   -0.5020  -22.5713 C   0  0  0  0  0  0  0  0  0  0  0  0
    6.3920   -1.4574  -21.7277 C   0  0  0  0  0  0  0  0  0  0  0  0
    5.5620   -1.0715  -20.6688 C   0  0  0  0  0  0  0  0  0  0  0  0
    5.2826    0.2908  -20.4957 C   0  0  0  0  0  0  0  0  0  0  0  0
    5.0324   -2.0795  -19.7126 C   0  0  0  0  0  0  0  0  0  0  0  0
    5.8880   -2.9479  -19.0262 C   0  0  0  0  0  0  0  0  0  0  0  0
    5.4445   -3.8570  -18.1214 N   0  0  0  0  0  0  0  0  0  0  0  0
    4.1068   -3.8945  -17.9098 C   0  0  0  0  0  0  0  0  0  0  0  0
    3.1877   -3.1136  -18.5314 N   0  0  0  0  0  0  0  0  0  0  0  0
    3.6685   -2.2125  -19.4309 C   0  0  0  0  0  0  0  0  0  0  0  0
    6.6731   -2.7651  -21.9310 F   0  0  0  0  0  0  0  0  0  0  0  0
    5.9088    3.6529  -22.2956 C   0  0  0  0  0  0  0  0  0  0  0  0
    7.1425    4.3070  -22.4554 C   0  0  0  0  0  0  0  0  0  0  0  0
    7.3761    5.0623  -23.6025 C   0  0  0  0  0  0  0  0  0  0  0  0
    6.4609    5.1888  -24.5949 N   0  0  0  0  0  0  0  0  0  0  0  0
    5.2712    4.5351  -24.4647 C   0  0  0  0  0  0  0  0  0  0  0  0
    4.9659    3.7715  -23.3299 C   0  0  0  0  0  0  0  0  0  0  0  0
    4.2954    4.6692  -25.6408 C   0  0  1  0  0  0  0  0  0  0  0  0
    4.8748    4.2575  -26.7677 F   0  0  0  0  0  0  0  0  0  0  0  0
    3.1889    3.9470  -25.4733 F   0  0  0  0  0  0  0  0  0  0  0  0
    3.9488    5.9487  -25.7921 F   0  0  0  0  0  0  0  0  0  0  0  0
    7.1652    1.5574  -23.0261 H   0  0  0  0  0  0  0  0  0  0  0  0
    7.5832   -0.8155  -23.3850 H   0  0  0  0  0  0  0  0  0  0  0  0
    4.6408    0.5855  -19.6833 H   0  0  0  0  0  0  0  0  0  0  0  0
    6.9580   -2.9112  -19.1898 H   0  0  0  0  0  0  0  0  0  0  0  0
    3.7468   -4.6074  -17.1770 H   0  0  0  0  0  0  0  0  0  0  0  0
    2.9427   -1.5774  -19.9232 H   0  0  0  0  0  0  0  0  0  0  0  0
    7.9286    4.2228  -21.7187 H   0  0  0  0  0  0  0  0  0  0  0  0
    8.3228    5.5686  -23.7413 H   0  0  0  0  0  0  0  0  0  0  0  0
    4.0150    3.2606  -23.2630 H   0  0  0  0  0  0  0  0  0  0  0  0
    6.3688    3.2618  -19.7816 C   0  0  2  0  0  0  0  0  0  0  0  0
    5.4202    3.1104  -18.6006 C   0  0  2  0  0  0  0  0  0  0  0  0
    4.1031    3.3305  -19.2728 C   0  0  0  0  0  0  0  0  0  0  0  0
    4.2342    3.0587  -20.5691 N   0  0  0  0  0  0  0  0  0  0  0  0
    5.6101    2.7892  -21.0444 C   0  0  2  0  0  0  0  0  0  0  0  0
    2.9667    3.7301  -18.7190 N   0  0  0  0  0  0  0  0  0  0  0  0
    2.8245    3.9354  -17.7220 H   0  0  0  0  0  0  0  0  0  0  0  0
    2.0958    3.7679  -19.2890 H   0  0  0  0  0  0  0  0  0  0  0  0
    3.4151    3.1211  -21.1879 H   0  0  0  0  0  0  0  0  0  0  0  0
    7.3122    2.7370  -19.6302 H   0  0  0  0  0  0  0  0  0  0  0  0
    6.6066    4.3233  -19.8548 H   0  0  0  0  0  0  0  0  0  0  0  0
    5.6604    4.1019  -17.6014 O   0  0  0  0  0  0  0  0  0  0  0  0
    5.4230    2.1097  -18.1600 H   0  0  0  0  0  0  0  0  0  0  0  0
    6.7087    3.7755  -16.6939 C   0  0  1  0  0  0  0  0  0  0  0  0
    6.8260    4.5783  -15.9657 H   0  0  0  0  0  0  0  0  0  0  0  0
    6.4906    2.8612  -16.1392 H   0  0  0  0  0  0  0  0  0  0  0  0
    7.6651    3.6513  -17.2048 H   0  0  0  0  0  0  0  0  0  0  0  0
  1  6  2  0
  1  2  1  0
 37  1  1  6
  2  3  2  0
  2 24  1  0
  3  4  1  0
  3 25  1  0
  4  5  2  0
  4 13  1  0
  5  6  1  0
  5  7  1  0
  6 26  1  0
  7 12  2  0
  7  8  1  0
  8  9  2  0
  8 27  1  0
  9 10  1  0
 10 28  1  0
 10 11  2  0
 11 12  1  0
 12 29  1  0
 14 15  1  0
 14 19  2  0
 14 37  1  0
 15 30  1  0
 15 16  2  0
 16 17  1  0
 16 31  1  0
 17 18  2  0
 18 19  1  0
 18 20  1  0
 19 32  1  0
 20 22  1  1
 20 21  1  0
 20 23  1  0
 33 42  1  1
 33 34  1  0
 33 37  1  0
 33 43  1  0
 34 45  1  1
 34 44  1  0
 34 35  1  0
 35 38  1  0
 35 36  2  0
 36 37  1  0
 36 41  1  0
 38 39  1  0
 38 40  1  0
 44 46  1  0
 46 48  1  1
 46 47  1  0
 46 49  1  0
M  CHG  1  36   1
M  END
