9S
     RDKit          3D

 49 52  0  0  1  0  0  0  0  0999 V2000
    5.8047    1.3250  -21.3567 C   0  0  0  0  0  0  0  0  0  0  0  0
    6.6214    0.9095  -22.4213 C   0  0  0  0  0  0  0  0  0  0  0  0
    6.8598   -0.4433  -22.6547 C   0  0  0  0  0  0  0  0  0  0  0  0
    6.3057   -1.4063  -21.8184 C   0  0  0  0  0  0  0  0  0  0  0  0
    5.4935   -1.0296  -20.7424 C   0  0  0  0  0  0  0  0  0  0  0  0
    5.2314    0.3327  -20.5444 C   0  0  0  0  0  0  0  0  0  0  0  0
    4.9768   -2.0459  -19.7875 C   0  0  0  0  0  0  0  0  0  0  0  0
    5.8409   -2.9234  -19.1235 C   0  0  0  0  0  0  0  0  0  0  0  0
    5.4101   -3.8387  -18.2182 N   0  0  0  0  0  0  0  0  0  0  0  0
    4.0763   -3.8725  -17.9827 C   0  0  0  0  0  0  0  0  0  0  0  0
    3.1496   -3.0828  -18.5814 N   0  0  0  0  0  0  0  0  0  0  0  0
    3.6180   -2.1761  -19.4822 C   0  0  0  0  0  0  0  0  0  0  0  0
    6.5750   -2.7132  -22.0414 F   0  0  0  0  0  0  0  0  0  0  0  0
    5.9319    3.7433  -22.2251 C   0  0  0  0  0  0  0  0  0  0  0  0
    7.1280    4.4722  -22.3367 C   0  0  0  0  0  0  0  0  0  0  0  0
    7.3618    5.2341  -23.4815 C   0  0  0  0  0  0  0  0  0  0  0  0
    6.4812    5.3068  -24.5110 N   0  0  0  0  0  0  0  0  0  0  0  0
    5.3203    4.5981  -24.4166 C   0  0  0  0  0  0  0  0  0  0  0  0
    5.0197    3.8202  -23.2916 C   0  0  0  0  0  0  0  0  0  0  0  0
    4.3670    4.6892  -25.6160 C   0  0  1  0  0  0  0  0  0  0  0  0
    4.9735    4.2593  -26.7212 F   0  0  0  0  0  0  0  0  0  0  0  0
    3.2673    3.9550  -25.4538 F   0  0  0  0  0  0  0  0  0  0  0  0
    4.0032    5.9590  -25.8049 F   0  0  0  0  0  0  0  0  0  0  0  0
    7.1008    1.6264  -23.0720 H   0  0  0  0  0  0  0  0  0  0  0  0
    7.4857   -0.7522  -23.4790 H   0  0  0  0  0  0  0  0  0  0  0  0
    4.6256    0.6323  -19.7040 H   0  0  0  0  0  0  0  0  0  0  0  0
    6.9080   -2.8883  -19.3053 H   0  0  0  0  0  0  0  0  0  0  0  0
    3.7269   -4.5899  -17.2488 H   0  0  0  0  0  0  0  0  0  0  0  0
    2.8867   -1.5330  -19.9554 H   0  0  0  0  0  0  0  0  0  0  0  0
    7.8966    4.4450  -21.5807 H   0  0  0  0  0  0  0  0  0  0  0  0
    8.2842    5.7902  -23.5887 H   0  0  0  0  0  0  0  0  0  0  0  0
    4.0942    3.2606  -23.2540 H   0  0  0  0  0  0  0  0  0  0  0  0
    6.3682    3.1454  -19.6991 C   0  0  2  0  0  0  0  0  0  0  0  0
    5.5530    4.2036  -18.9878 C   0  0  1  0  0  0  0  0  0  0  0  0
    4.1641    3.8164  -19.3999 C   0  0  0  0  0  0  0  0  0  0  0  0
    4.2490    3.1490  -20.5487 N   0  0  0  0  0  0  0  0  0  0  0  0
    5.6175    2.8276  -21.0150 C   0  0  2  0  0  0  0  0  0  0  0  0
    3.0183    4.0362  -18.7667 N   0  0  0  0  0  0  0  0  0  0  0  0
    2.1171    3.8272  -19.2423 H   0  0  0  0  0  0  0  0  0  0  0  0
    2.9250    4.3731  -17.8026 H   0  0  0  0  0  0  0  0  0  0  0  0
    3.3974    2.9413  -21.0831 H   0  0  0  0  0  0  0  0  0  0  0  0
    5.7742    5.2038  -19.3730 H   0  0  0  0  0  0  0  0  0  0  0  0
    5.7495    4.1304  -17.5765 O   0  0  0  0  0  0  0  0  0  0  0  0
    6.3815    2.2682  -19.0511 H   0  0  0  0  0  0  0  0  0  0  0  0
    7.4140    3.4166  -19.8138 H   0  0  0  0  0  0  0  0  0  0  0  0
    5.4231    5.3292  -16.8800 C   0  0  1  0  0  0  0  0  0  0  0  0
    4.4369    5.7137  -17.1414 H   0  0  0  0  0  0  0  0  0  0  0  0
    5.4311    5.1447  -15.8052 H   0  0  0  0  0  0  0  0  0  0  0  0
    6.1537    6.1126  -17.0869 H   0  0  0  0  0  0  0  0  0  0  0  0
  1  6  2  0
  1  2  1  0
 37  1  1  6
  2  3  2  0
  2 24  1  0
  3  4  1  0
  3 25  1  0
  4  5  2  0
  4 13  1  0
  5  6  1  0
  5  7  1  0
  6 26  1  0
  7 12  2  0
  7  8  1  0
  8  9  2  0
  8 27  1  0
  9 10  1  0
 10 28  1  0
 10 11  2  0
 11 12  1  0
 12 29  1  0
 14 15  1  0
 14 19  2  0
 14 37  1  0
 15 30  1  0
 15 16  2  0
 16 17  1  0
 16 31  1  0
 17 18  2  0
 18 19  1  0
 18 20  1  0
 19 32  1  0
 20 22  1  1
 20 21  1  0
 20 23  1  0
 33 44  1  1
 33 34  1  0
 33 37  1  0
 33 45  1  0
 34 42  1  6
 34 43  1  0
 34 35  1  0
 35 38  1  0
 35 36  2  0
 36 37  1  0
 36 41  1  0
 38 40  1  0
 38 39  1  0
 43 46  1  0
 46 48  1  1
 46 47  1  0
 46 49  1  0
M  CHG  1  36   1
M  END
