1
     RDKit          3D

 45 48  0  0  1  0  0  0  0  0999 V2000
    5.8176    1.3180  -21.2772 C   0  0  0  0  0  0  0  0  0  0  0  0
    6.6053    0.9092  -22.3676 C   0  0  0  0  0  0  0  0  0  0  0  0
    6.8756   -0.4394  -22.5915 C   0  0  0  0  0  0  0  0  0  0  0  0
    6.3743   -1.4066  -21.7274 C   0  0  0  0  0  0  0  0  0  0  0  0
    5.5910   -1.0371  -20.6281 C   0  0  0  0  0  0  0  0  0  0  0  0
    5.3100    0.3206  -20.4292 C   0  0  0  0  0  0  0  0  0  0  0  0
    5.1049   -2.0570  -19.6633 C   0  0  0  0  0  0  0  0  0  0  0  0
    5.9928   -2.8977  -18.9841 C   0  0  0  0  0  0  0  0  0  0  0  0
    5.5840   -3.8171  -18.0728 N   0  0  0  0  0  0  0  0  0  0  0  0
    4.2493   -3.8943  -17.8501 C   0  0  0  0  0  0  0  0  0  0  0  0
    3.3018   -3.1437  -18.4660 N   0  0  0  0  0  0  0  0  0  0  0  0
    3.7479   -2.2304  -19.3706 C   0  0  0  0  0  0  0  0  0  0  0  0
    6.6584   -2.7100  -21.9521 F   0  0  0  0  0  0  0  0  0  0  0  0
    5.8868    3.7328  -22.1915 C   0  0  0  0  0  0  0  0  0  0  0  0
    7.0776    4.4770  -22.2604 C   0  0  0  0  0  0  0  0  0  0  0  0
    7.3441    5.2384  -23.3987 C   0  0  0  0  0  0  0  0  0  0  0  0
    6.4969    5.3014  -24.4578 N   0  0  0  0  0  0  0  0  0  0  0  0
    5.3375    4.5856  -24.3995 C   0  0  0  0  0  0  0  0  0  0  0  0
    5.0092    3.8021  -23.2867 C   0  0  0  0  0  0  0  0  0  0  0  0
    4.4119    4.6803  -25.6204 C   0  0  1  0  0  0  0  0  0  0  0  0
    5.0317    4.2222  -26.7062 F   0  0  0  0  0  0  0  0  0  0  0  0
    3.2935    3.9715  -25.4717 F   0  0  0  0  0  0  0  0  0  0  0  0
    4.0775    5.9544  -25.8332 F   0  0  0  0  0  0  0  0  0  0  0  0
    7.0305    1.6270  -23.0539 H   0  0  0  0  0  0  0  0  0  0  0  0
    7.4772   -0.7420  -23.4363 H   0  0  0  0  0  0  0  0  0  0  0  0
    4.7242    0.6167  -19.5746 H   0  0  0  0  0  0  0  0  0  0  0  0
    7.0595   -2.8292  -19.1585 H   0  0  0  0  0  0  0  0  0  0  0  0
    3.9153   -4.6121  -17.1103 H   0  0  0  0  0  0  0  0  0  0  0  0
    2.9992   -1.6189  -19.8585 H   0  0  0  0  0  0  0  0  0  0  0  0
    7.8049    4.4506  -21.4610 H   0  0  0  0  0  0  0  0  0  0  0  0
    8.2633    5.8049  -23.4742 H   0  0  0  0  0  0  0  0  0  0  0  0
    4.0869    3.2366  -23.2789 H   0  0  0  0  0  0  0  0  0  0  0  0
    6.3046    3.1640  -19.8064 N   0  0  0  0  0  0  0  0  0  0  0  0
    5.5175    3.5310  -18.8697 C   0  0  0  0  0  0  0  0  0  0  0  0
    4.1064    3.4969  -19.3383 C   0  0  0  0  0  0  0  0  0  0  0  0
    4.1588    3.0654  -20.5779 N   0  0  0  0  0  0  0  0  0  0  0  0
    5.5327    2.8191  -20.9877 C   0  0  2  0  0  0  0  0  0  0  0  0
    2.9860    3.8146  -18.7049 N   0  0  0  0  0  0  0  0  0  0  0  0
    2.0816    3.7569  -19.2183 H   0  0  0  0  0  0  0  0  0  0  0  0
    2.8893    4.0824  -17.7182 H   0  0  0  0  0  0  0  0  0  0  0  0
    3.3209    3.0372  -21.1794 H   0  0  0  0  0  0  0  0  0  0  0  0
    5.9357    3.9268  -17.4733 C   0  0  1  0  0  0  0  0  0  0  0  0
    6.8829    4.4646  -17.4787 H   0  0  0  0  0  0  0  0  0  0  0  0
    5.1862    4.5697  -17.0127 H   0  0  0  0  0  0  0  0  0  0  0  0
    6.0473    3.0468  -16.8413 H   0  0  0  0  0  0  0  0  0  0  0  0
  1  6  2  0
  1  2  1  0
 37  1  1  6
  2  3  2  0
  2 24  1  0
  3  4  1  0
  3 25  1  0
  4  5  2  0
  4 13  1  0
  5  6  1  0
  5  7  1  0
  6 26  1  0
  7 12  2  0
  7  8  1  0
  8  9  2  0
  8 27  1  0
  9 10  1  0
 10 28  1  0
 10 11  2  0
 11 12  1  0
 12 29  1  0
 14 15  1  0
 14 19  2  0
 14 37  1  0
 15 30  1  0
 15 16  2  0
 16 17  1  0
 16 31  1  0
 17 18  2  0
 18 19  1  0
 18 20  1  0
 19 32  1  0
 20 22  1  1
 20 21  1  0
 20 23  1  0
 33 34  2  0
 33 37  1  0
 34 42  1  0
 34 35  1  0
 35 38  1  0
 35 36  2  0
 36 37  1  0
 36 41  1  0
 38 40  1  0
 38 39  1  0
 42 43  1  6
 42 44  1  0
 42 45  1  0
M  CHG  1  36   1
M  END
