3
     RDKit          3D

 46 49  0  0  1  0  0  0  0  0999 V2000
    5.8057    1.2882  -21.3221 C   0  0  0  0  0  0  0  0  0  0  0  0
    6.5939    0.8712  -22.4087 C   0  0  0  0  0  0  0  0  0  0  0  0
    6.8622   -0.4791  -22.6229 C   0  0  0  0  0  0  0  0  0  0  0  0
    6.3588   -1.4396  -21.7527 C   0  0  0  0  0  0  0  0  0  0  0  0
    5.5745   -1.0618  -20.6569 C   0  0  0  0  0  0  0  0  0  0  0  0
    5.2939    0.2975  -20.4683 C   0  0  0  0  0  0  0  0  0  0  0  0
    5.0907   -2.0749  -19.6836 C   0  0  0  0  0  0  0  0  0  0  0  0
    5.9803   -2.9147  -19.0055 C   0  0  0  0  0  0  0  0  0  0  0  0
    5.5750   -3.8283  -18.0870 N   0  0  0  0  0  0  0  0  0  0  0  0
    4.2416   -3.9008  -17.8555 C   0  0  0  0  0  0  0  0  0  0  0  0
    3.2923   -3.1507  -18.4693 N   0  0  0  0  0  0  0  0  0  0  0  0
    3.7352   -2.2430  -19.3812 C   0  0  0  0  0  0  0  0  0  0  0  0
    6.6430   -2.7447  -21.9671 F   0  0  0  0  0  0  0  0  0  0  0  0
    5.8812    3.7011  -22.2477 C   0  0  0  0  0  0  0  0  0  0  0  0
    7.0773    4.4365  -22.3313 C   0  0  0  0  0  0  0  0  0  0  0  0
    7.3323    5.2046  -23.4669 C   0  0  0  0  0  0  0  0  0  0  0  0
    6.4691    5.2817  -24.5113 N   0  0  0  0  0  0  0  0  0  0  0  0
    5.3069    4.5717  -24.4414 C   0  0  0  0  0  0  0  0  0  0  0  0
    4.9885    3.7826  -23.3293 C   0  0  0  0  0  0  0  0  0  0  0  0
    4.3678    4.6803  -25.6499 C   0  0  1  0  0  0  0  0  0  0  0  0
    4.9830    4.2542  -26.7513 F   0  0  0  0  0  0  0  0  0  0  0  0
    3.2600    3.9545  -25.5051 F   0  0  0  0  0  0  0  0  0  0  0  0
    4.0170    5.9547  -25.8306 F   0  0  0  0  0  0  0  0  0  0  0  0
    7.0226    1.5847  -23.0971 H   0  0  0  0  0  0  0  0  0  0  0  0
    7.4643   -0.7883  -23.4648 H   0  0  0  0  0  0  0  0  0  0  0  0
    4.7098    0.5998  -19.6145 H   0  0  0  0  0  0  0  0  0  0  0  0
    7.0461   -2.8502  -19.1873 H   0  0  0  0  0  0  0  0  0  0  0  0
    3.9105   -4.6143  -17.1102 H   0  0  0  0  0  0  0  0  0  0  0  0
    2.9850   -1.6316  -19.8672 H   0  0  0  0  0  0  0  0  0  0  0  0
    7.8168    4.4012  -21.5436 H   0  0  0  0  0  0  0  0  0  0  0  0
    8.2539    5.7658  -23.5515 H   0  0  0  0  0  0  0  0  0  0  0  0
    4.0618    3.2248  -23.3109 H   0  0  0  0  0  0  0  0  0  0  0  0
    6.3446    3.1304  -19.8806 N   0  0  0  0  0  0  0  0  0  0  0  0
    5.5650    3.5132  -18.9490 C   0  0  0  0  0  0  0  0  0  0  0  0
    4.1350    3.5001  -19.3597 C   0  0  0  0  0  0  0  0  0  0  0  0
    4.1668    3.0554  -20.5980 N   0  0  0  0  0  0  0  0  0  0  0  0
    5.5356    2.7922  -21.0371 C   0  0  2  0  0  0  0  0  0  0  0  0
    3.0287    3.8355  -18.7061 N   0  0  0  0  0  0  0  0  0  0  0  0
    2.1138    3.7744  -19.1969 H   0  0  0  0  0  0  0  0  0  0  0  0
    2.9634    4.1160  -17.7207 H   0  0  0  0  0  0  0  0  0  0  0  0
    3.3200    3.0291  -21.1868 H   0  0  0  0  0  0  0  0  0  0  0  0
    6.0297    4.0440  -17.2890 S   0  0  0  0  0  0  0  0  0  0  0  0
    7.8355    3.8030  -17.3655 C   0  0  1  0  0  0  0  0  0  0  0  0
    8.2957    4.0684  -16.4147 H   0  0  0  0  0  0  0  0  0  0  0  0
    8.0862    2.7633  -17.5761 H   0  0  0  0  0  0  0  0  0  0  0  0
    8.2852    4.4249  -18.1393 H   0  0  0  0  0  0  0  0  0  0  0  0
  1  6  2  0
  1  2  1  0
 37  1  1  6
  2  3  2  0
  2 24  1  0
  3  4  1  0
  3 25  1  0
  4  5  2  0
  4 13  1  0
  5  6  1  0
  5  7  1  0
  6 26  1  0
  7 12  2  0
  7  8  1  0
  8  9  2  0
  8 27  1  0
  9 10  1  0
 10 28  1  0
 10 11  2  0
 11 12  1  0
 12 29  1  0
 14 15  1  0
 14 19  2  0
 14 37  1  0
 15 30  1  0
 15 16  2  0
 16 17  1  0
 16 31  1  0
 17 18  2  0
 18 19  1  0
 18 20  1  0
 19 32  1  0
 20 22  1  1
 20 21  1  0
 20 23  1  0
 33 34  2  0
 33 37  1  0
 34 42  1  0
 34 35  1  0
 35 38  1  0
 35 36  2  0
 36 37  1  0
 36 41  1  0
 38 40  1  0
 38 39  1  0
 42 43  1  0
 43 44  1  1
 43 45  1  0
 43 46  1  0
M  CHG  1  36   1
M  END
