2
     RDKit          3D

 46 49  0  0  1  0  0  0  0  0999 V2000
    5.8028    1.2854  -21.3066 C   0  0  0  0  0  0  0  0  0  0  0  0
    6.5946    0.8726  -22.3924 C   0  0  0  0  0  0  0  0  0  0  0  0
    6.8642   -0.4769  -22.6108 C   0  0  0  0  0  0  0  0  0  0  0  0
    6.3591   -1.4410  -21.7455 C   0  0  0  0  0  0  0  0  0  0  0  0
    5.5709   -1.0674  -20.6511 C   0  0  0  0  0  0  0  0  0  0  0  0
    5.2882    0.2909  -20.4592 C   0  0  0  0  0  0  0  0  0  0  0  0
    5.0848   -2.0824  -19.6808 C   0  0  0  0  0  0  0  0  0  0  0  0
    5.9730   -2.9228  -19.0014 C   0  0  0  0  0  0  0  0  0  0  0  0
    5.5659   -3.8354  -18.0828 N   0  0  0  0  0  0  0  0  0  0  0  0
    4.2322   -3.9063  -17.8524 C   0  0  0  0  0  0  0  0  0  0  0  0
    3.2842   -3.1559  -18.4679 N   0  0  0  0  0  0  0  0  0  0  0  0
    3.7288   -2.2496  -19.3802 C   0  0  0  0  0  0  0  0  0  0  0  0
    6.6453   -2.7450  -21.9632 F   0  0  0  0  0  0  0  0  0  0  0  0
    5.8829    3.7001  -22.2221 C   0  0  0  0  0  0  0  0  0  0  0  0
    7.0797    4.4352  -22.2973 C   0  0  0  0  0  0  0  0  0  0  0  0
    7.3424    5.2025  -23.4320 C   0  0  0  0  0  0  0  0  0  0  0  0
    6.4868    5.2791  -24.4829 N   0  0  0  0  0  0  0  0  0  0  0  0
    5.3235    4.5702  -24.4207 C   0  0  0  0  0  0  0  0  0  0  0  0
    4.9978    3.7818  -23.3104 C   0  0  0  0  0  0  0  0  0  0  0  0
    4.3918    4.6788  -25.6356 C   0  0  1  0  0  0  0  0  0  0  0  0
    5.0077    4.2361  -26.7299 F   0  0  0  0  0  0  0  0  0  0  0  0
    3.2753    3.9662  -25.4904 F   0  0  0  0  0  0  0  0  0  0  0  0
    4.0549    5.9552  -25.8297 F   0  0  0  0  0  0  0  0  0  0  0  0
    7.0255    1.5879  -23.0777 H   0  0  0  0  0  0  0  0  0  0  0  0
    7.4692   -0.7827  -23.4520 H   0  0  0  0  0  0  0  0  0  0  0  0
    4.6991    0.5874  -19.6074 H   0  0  0  0  0  0  0  0  0  0  0  0
    7.0392   -2.8592  -19.1813 H   0  0  0  0  0  0  0  0  0  0  0  0
    3.8998   -4.6184  -17.1065 H   0  0  0  0  0  0  0  0  0  0  0  0
    2.9794   -1.6383  -19.8673 H   0  0  0  0  0  0  0  0  0  0  0  0
    7.8151    4.3991  -21.5057 H   0  0  0  0  0  0  0  0  0  0  0  0
    8.2650    5.7631  -23.5113 H   0  0  0  0  0  0  0  0  0  0  0  0
    4.0711    3.2235  -23.3001 H   0  0  0  0  0  0  0  0  0  0  0  0
    6.3278    3.1207  -19.8504 N   0  0  0  0  0  0  0  0  0  0  0  0
    5.5345    3.4951  -18.9212 C   0  0  0  0  0  0  0  0  0  0  0  0
    4.1122    3.4874  -19.3530 C   0  0  0  0  0  0  0  0  0  0  0  0
    4.1558    3.0472  -20.5922 N   0  0  0  0  0  0  0  0  0  0  0  0
    5.5295    2.7878  -21.0167 C   0  0  2  0  0  0  0  0  0  0  0  0
    3.0009    3.8253  -18.7075 N   0  0  0  0  0  0  0  0  0  0  0  0
    2.9257    4.1037  -17.7211 H   0  0  0  0  0  0  0  0  0  0  0  0
    2.0879    3.7708  -19.2052 H   0  0  0  0  0  0  0  0  0  0  0  0
    3.3150    3.0245  -21.1905 H   0  0  0  0  0  0  0  0  0  0  0  0
    5.8579    3.8869  -17.6410 O   0  0  0  0  0  0  0  0  0  0  0  0
    7.2438    3.8340  -17.2859 C   0  0  1  0  0  0  0  0  0  0  0  0
    7.6555    2.8251  -17.3642 H   0  0  0  0  0  0  0  0  0  0  0  0
    7.8538    4.5059  -17.8939 H   0  0  0  0  0  0  0  0  0  0  0  0
    7.3615    4.1455  -16.2479 H   0  0  0  0  0  0  0  0  0  0  0  0
  1  6  2  0
  1  2  1  0
 37  1  1  6
  2  3  2  0
  2 24  1  0
  3  4  1  0
  3 25  1  0
  4  5  2  0
  4 13  1  0
  5  6  1  0
  5  7  1  0
  6 26  1  0
  7 12  2  0
  7  8  1  0
  8  9  2  0
  8 27  1  0
  9 10  1  0
 10 28  1  0
 10 11  2  0
 11 12  1  0
 12 29  1  0
 14 15  1  0
 14 19  2  0
 14 37  1  0
 15 30  1  0
 15 16  2  0
 16 17  1  0
 16 31  1  0
 17 18  2  0
 18 19  1  0
 18 20  1  0
 19 32  1  0
 20 22  1  1
 20 21  1  0
 20 23  1  0
 33 34  2  0
 33 37  1  0
 34 42  1  0
 34 35  1  0
 35 38  1  0
 35 36  2  0
 36 37  1  0
 36 41  1  0
 38 39  1  0
 38 40  1  0
 42 43  1  0
 43 46  1  1
 43 44  1  0
 43 45  1  0
M  CHG  1  36   1
M  END
