10
     RDKit          3D

 49 52  0  0  1  0  0  0  0  0999 V2000
    5.7501    1.2704  -21.2264 C   0  0  0  0  0  0  0  0  0  0  0  0
    6.4829    0.8720  -22.3595 C   0  0  0  0  0  0  0  0  0  0  0  0
    6.7126   -0.4766  -22.6255 C   0  0  0  0  0  0  0  0  0  0  0  0
    6.2106   -1.4537  -21.7728 C   0  0  0  0  0  0  0  0  0  0  0  0
    5.4648   -1.0936  -20.6451 C   0  0  0  0  0  0  0  0  0  0  0  0
    5.2283    0.2643  -20.4023 C   0  0  0  0  0  0  0  0  0  0  0  0
    4.9875   -2.1189  -19.6830 C   0  0  0  0  0  0  0  0  0  0  0  0
    5.8773   -2.9884  -19.0446 C   0  0  0  0  0  0  0  0  0  0  0  0
    5.4783   -3.9035  -18.1251 N   0  0  0  0  0  0  0  0  0  0  0  0
    4.1515   -3.9453  -17.8519 C   0  0  0  0  0  0  0  0  0  0  0  0
    3.2017   -3.1659  -18.4268 N   0  0  0  0  0  0  0  0  0  0  0  0
    3.6384   -2.2588  -19.3418 C   0  0  0  0  0  0  0  0  0  0  0  0
    6.4641   -2.7566  -22.0325 F   0  0  0  0  0  0  0  0  0  0  0  0
    5.9613    3.7191  -21.9903 C   0  0  0  0  0  0  0  0  0  0  0  0
    7.1127    4.5219  -21.9874 C   0  0  0  0  0  0  0  0  0  0  0  0
    7.3951    5.3117  -23.1049 C   0  0  0  0  0  0  0  0  0  0  0  0
    6.5936    5.3583  -24.2018 N   0  0  0  0  0  0  0  0  0  0  0  0
    5.4587    4.6021  -24.2019 C   0  0  0  0  0  0  0  0  0  0  0  0
    5.1219    3.7839  -23.1177 C   0  0  0  0  0  0  0  0  0  0  0  0
    4.5652    4.6901  -25.4497 C   0  0  1  0  0  0  0  0  0  0  0  0
    5.1891    4.1644  -26.5010 F   0  0  0  0  0  0  0  0  0  0  0  0
    3.4177    4.0290  -25.3015 F   0  0  0  0  0  0  0  0  0  0  0  0
    4.2812    5.9651  -25.7273 F   0  0  0  0  0  0  0  0  0  0  0  0
    6.9186    1.5963  -23.0323 H   0  0  0  0  0  0  0  0  0  0  0  0
    7.2856   -0.7715  -23.4930 H   0  0  0  0  0  0  0  0  0  0  0  0
    4.6953    0.5579  -19.5159 H   0  0  0  0  0  0  0  0  0  0  0  0
    6.9385   -2.9447  -19.2567 H   0  0  0  0  0  0  0  0  0  0  0  0
    3.8263   -4.6579  -17.1037 H   0  0  0  0  0  0  0  0  0  0  0  0
    2.8902   -1.6213  -19.7957 H   0  0  0  0  0  0  0  0  0  0  0  0
    7.8012    4.5217  -21.1557 H   0  0  0  0  0  0  0  0  0  0  0  0
    8.2905    5.9190  -23.1325 H   0  0  0  0  0  0  0  0  0  0  0  0
    4.2217    3.1842  -23.1562 H   0  0  0  0  0  0  0  0  0  0  0  0
    6.2343    3.0637  -19.5208 N   0  0  0  0  0  0  0  0  0  0  0  0
    5.4088    4.0054  -18.7628 C   0  0  2  0  0  0  0  0  0  0  0  0
    4.0677    3.7029  -19.3093 C   0  0  0  0  0  0  0  0  0  0  0  0
    4.1929    3.0573  -20.4569 N   0  0  0  0  0  0  0  0  0  0  0  0
    5.5840    2.7661  -20.8261 C   0  0  2  0  0  0  0  0  0  0  0  0
    2.9149    3.9963  -18.7429 N   0  0  0  0  0  0  0  0  0  0  0  0
    2.7791    4.3118  -17.7738 H   0  0  0  0  0  0  0  0  0  0  0  0
    2.0269    3.8244  -19.2646 H   0  0  0  0  0  0  0  0  0  0  0  0
    3.3715    2.8953  -21.0521 H   0  0  0  0  0  0  0  0  0  0  0  0
    7.4292    2.6781  -18.9985 C   0  0  0  0  0  0  0  0  0  0  0  0
    5.6590    5.0454  -18.9739 H   0  0  0  0  0  0  0  0  0  0  0  0
    5.4158    3.8385  -17.6836 H   0  0  0  0  0  0  0  0  0  0  0  0
    8.3242    1.6911  -19.7283 C   0  0  1  0  0  0  0  0  0  0  0  0
    7.8306    3.0989  -17.9107 O   0  0  0  0  0  0  0  0  0  0  0  0
    7.9202    0.6824  -19.6694 H   0  0  0  0  0  0  0  0  0  0  0  0
    8.4436    1.9697  -20.7731 H   0  0  0  0  0  0  0  0  0  0  0  0
    9.3040    1.6726  -19.2556 H   0  0  0  0  0  0  0  0  0  0  0  0
  1  6  2  0
  1  2  1  0
 37  1  1  6
  2  3  2  0
  2 24  1  0
  3  4  1  0
  3 25  1  0
  4  5  2  0
  4 13  1  0
  5  6  1  0
  5  7  1  0
  6 26  1  0
  7 12  2  0
  7  8  1  0
  8  9  2  0
  8 27  1  0
  9 10  1  0
 10 28  1  0
 10 11  2  0
 11 12  1  0
 12 29  1  0
 14 15  1  0
 14 19  2  0
 14 37  1  0
 15 30  1  0
 15 16  2  0
 16 17  1  0
 16 31  1  0
 17 18  2  0
 18 19  1  0
 18 20  1  0
 19 32  1  0
 20 22  1  1
 20 21  1  0
 20 23  1  0
 33 42  1  0
 33 34  1  0
 33 37  1  0
 34 43  1  1
 34 44  1  0
 34 35  1  0
 35 38  1  0
 35 36  2  0
 36 37  1  0
 36 41  1  0
 38 39  1  0
 38 40  1  0
 42 46  2  0
 42 45  1  0
 45 49  1  1
 45 47  1  0
 45 48  1  0
M  CHG  1  36   1
M  END
