7
     RDKit          3D

 45 48  0  0  1  0  0  0  0  0999 V2000
    5.8773    1.3199  -21.2842 C   0  0  0  0  0  0  0  0  0  0  0  0
    6.6903    0.8916  -22.3484 C   0  0  0  0  0  0  0  0  0  0  0  0
    6.9413   -0.4613  -22.5635 C   0  0  0  0  0  0  0  0  0  0  0  0
    6.4025   -1.4162  -21.7095 C   0  0  0  0  0  0  0  0  0  0  0  0
    5.5974   -1.0296  -20.6320 C   0  0  0  0  0  0  0  0  0  0  0  0
    5.3295    0.3339  -20.4470 C   0  0  0  0  0  0  0  0  0  0  0  0
    5.0760   -2.0418  -19.6766 C   0  0  0  0  0  0  0  0  0  0  0  0
    5.9378   -2.9022  -18.9883 C   0  0  0  0  0  0  0  0  0  0  0  0
    5.4990   -3.8216  -18.0914 N   0  0  0  0  0  0  0  0  0  0  0  0
    4.1599   -3.8780  -17.8911 C   0  0  0  0  0  0  0  0  0  0  0  0
    3.2357   -3.1053  -18.5154 N   0  0  0  0  0  0  0  0  0  0  0  0
    3.7119   -2.1931  -19.4063 C   0  0  0  0  0  0  0  0  0  0  0  0
    6.6723   -2.7248  -21.9227 F   0  0  0  0  0  0  0  0  0  0  0  0
    5.9271    3.6939  -22.2658 C   0  0  0  0  0  0  0  0  0  0  0  0
    7.1581    4.3524  -22.4246 C   0  0  0  0  0  0  0  0  0  0  0  0
    7.3936    5.0992  -23.5773 C   0  0  0  0  0  0  0  0  0  0  0  0
    6.4829    5.2133  -24.5756 N   0  0  0  0  0  0  0  0  0  0  0  0
    5.2952    4.5562  -24.4452 C   0  0  0  0  0  0  0  0  0  0  0  0
    4.9883    3.8011  -23.3054 C   0  0  0  0  0  0  0  0  0  0  0  0
    4.3233    4.6762  -25.6262 C   0  0  1  0  0  0  0  0  0  0  0  0
    4.9056    4.2508  -26.7466 F   0  0  0  0  0  0  0  0  0  0  0  0
    3.2157    3.9565  -25.4539 F   0  0  0  0  0  0  0  0  0  0  0  0
    3.9773    5.9539  -25.7941 F   0  0  0  0  0  0  0  0  0  0  0  0
    7.1482    1.5975  -23.0255 H   0  0  0  0  0  0  0  0  0  0  0  0
    7.5594   -0.7759  -23.3915 H   0  0  0  0  0  0  0  0  0  0  0  0
    4.7123    0.6340  -19.6169 H   0  0  0  0  0  0  0  0  0  0  0  0
    7.0082   -2.8519  -19.1460 H   0  0  0  0  0  0  0  0  0  0  0  0
    3.8030   -4.5993  -17.1651 H   0  0  0  0  0  0  0  0  0  0  0  0
    2.9821   -1.5657  -19.9025 H   0  0  0  0  0  0  0  0  0  0  0  0
    7.9412    4.2754  -21.6837 H   0  0  0  0  0  0  0  0  0  0  0  0
    8.3390    5.6077  -23.7162 H   0  0  0  0  0  0  0  0  0  0  0  0
    4.0395    3.2858  -23.2389 H   0  0  0  0  0  0  0  0  0  0  0  0
    6.3650    3.3118  -19.7397 C   0  0  1  0  0  0  0  0  0  0  0  0
    5.3922    3.2003  -18.5661 C   0  0  2  0  0  0  0  0  0  0  0  0
    4.0936    3.3580  -19.2618 C   0  0  0  0  0  0  0  0  0  0  0  0
    4.2468    3.0903  -20.5542 N   0  0  0  0  0  0  0  0  0  0  0  0
    5.6275    2.8311  -21.0141 C   0  0  2  0  0  0  0  0  0  0  0  0
    2.9450    3.7030  -18.7132 N   0  0  0  0  0  0  0  0  0  0  0  0
    2.0836    3.7319  -19.2998 H   0  0  0  0  0  0  0  0  0  0  0  0
    2.7711    3.8909  -17.7184 H   0  0  0  0  0  0  0  0  0  0  0  0
    3.4299    3.1296  -21.1770 H   0  0  0  0  0  0  0  0  0  0  0  0
    6.6257    4.3678  -19.8257 H   0  0  0  0  0  0  0  0  0  0  0  0
    7.3007    2.7776  -19.5656 H   0  0  0  0  0  0  0  0  0  0  0  0
    5.5250    3.9763  -17.8109 H   0  0  0  0  0  0  0  0  0  0  0  0
    5.4172    2.2266  -18.0754 H   0  0  0  0  0  0  0  0  0  0  0  0
  1  6  2  0
  1  2  1  0
 37  1  1  6
  2  3  2  0
  2 24  1  0
  3  4  1  0
  3 25  1  0
  4  5  2  0
  4 13  1  0
  5  6  1  0
  5  7  1  0
  6 26  1  0
  7 12  2  0
  7  8  1  0
  8  9  2  0
  8 27  1  0
  9 10  1  0
 10 28  1  0
 10 11  2  0
 11 12  1  0
 12 29  1  0
 14 15  1  0
 14 19  2  0
 14 37  1  0
 15 30  1  0
 15 16  2  0
 16 17  1  0
 16 31  1  0
 17 18  2  0
 18 19  1  0
 18 20  1  0
 19 32  1  0
 20 22  1  1
 20 21  1  0
 20 23  1  0
 33 43  1  1
 33 34  1  0
 33 37  1  0
 33 42  1  0
 34 45  1  1
 34 44  1  0
 34 35  1  0
 35 38  1  0
 35 36  2  0
 36 37  1  0
 36 41  1  0
 38 40  1  0
 38 39  1  0
M  CHG  1  36   1
M  END
