8
     RDKit          3D

 43 46  0  0  1  0  0  0  0  0999 V2000
    5.8288    1.3332  -21.2836 C   0  0  0  0  0  0  0  0  0  0  0  0
    6.6057    0.9114  -22.3755 C   0  0  0  0  0  0  0  0  0  0  0  0
    6.8350   -0.4419  -22.6127 C   0  0  0  0  0  0  0  0  0  0  0  0
    6.3068   -1.4005  -21.7559 C   0  0  0  0  0  0  0  0  0  0  0  0
    5.5375   -1.0177  -20.6510 C   0  0  0  0  0  0  0  0  0  0  0  0
    5.2930    0.3464  -20.4406 C   0  0  0  0  0  0  0  0  0  0  0  0
    5.0377   -2.0345  -19.6896 C   0  0  0  0  0  0  0  0  0  0  0  0
    5.9159   -2.8928  -19.0196 C   0  0  0  0  0  0  0  0  0  0  0  0
    5.4976   -3.8152  -18.1158 N   0  0  0  0  0  0  0  0  0  0  0  0
    4.1627   -3.8768  -17.8901 C   0  0  0  0  0  0  0  0  0  0  0  0
    3.2237   -3.1072  -18.4962 N   0  0  0  0  0  0  0  0  0  0  0  0
    3.6796   -2.1923  -19.3948 C   0  0  0  0  0  0  0  0  0  0  0  0
    6.5559   -2.7093  -21.9908 F   0  0  0  0  0  0  0  0  0  0  0  0
    5.9120    3.7546  -22.1967 C   0  0  0  0  0  0  0  0  0  0  0  0
    7.0786    4.5303  -22.3206 C   0  0  0  0  0  0  0  0  0  0  0  0
    7.2862    5.2833  -23.4750 C   0  0  0  0  0  0  0  0  0  0  0  0
    6.4060    5.3048  -24.5062 N   0  0  0  0  0  0  0  0  0  0  0  0
    5.2732    4.5531  -24.4017 C   0  0  0  0  0  0  0  0  0  0  0  0
    5.0008    3.7767  -23.2667 C   0  0  0  0  0  0  0  0  0  0  0  0
    4.3214    4.5979  -25.6038 C   0  0  1  0  0  0  0  0  0  0  0  0
    4.9360    4.1344  -26.6912 F   0  0  0  0  0  0  0  0  0  0  0  0
    3.2264    3.8640  -25.4169 F   0  0  0  0  0  0  0  0  0  0  0  0
    3.9489    5.8576  -25.8381 F   0  0  0  0  0  0  0  0  0  0  0  0
    7.0581    1.6250  -23.0489 H   0  0  0  0  0  0  0  0  0  0  0  0
    7.4284   -0.7547  -23.4595 H   0  0  0  0  0  0  0  0  0  0  0  0
    4.7197    0.6491  -19.5802 H   0  0  0  0  0  0  0  0  0  0  0  0
    6.9828   -2.8376  -19.1973 H   0  0  0  0  0  0  0  0  0  0  0  0
    3.8222   -4.5998  -17.1579 H   0  0  0  0  0  0  0  0  0  0  0  0
    2.9383   -1.5673  -19.8769 H   0  0  0  0  0  0  0  0  0  0  0  0
    7.8429    4.5406  -21.5576 H   0  0  0  0  0  0  0  0  0  0  0  0
    8.1862    5.8740  -23.5874 H   0  0  0  0  0  0  0  0  0  0  0  0
    4.0993    3.1800  -23.2225 H   0  0  0  0  0  0  0  0  0  0  0  0
    6.6764    3.2604  -19.5241 S   0  0  0  0  0  0  0  0  0  0  0  0
    5.3261    3.3390  -18.3374 C   0  0  2  0  0  0  0  0  0  0  0  0
    4.1145    3.4400  -19.1814 C   0  0  0  0  0  0  0  0  0  0  0  0
    4.2854    3.1381  -20.4651 N   0  0  0  0  0  0  0  0  0  0  0  0
    5.6446    2.8400  -20.9728 C   0  0  2  0  0  0  0  0  0  0  0  0
    2.9100    3.7253  -18.7276 N   0  0  0  0  0  0  0  0  0  0  0  0
    2.6557    3.9029  -17.7447 H   0  0  0  0  0  0  0  0  0  0  0  0
    2.0849    3.7306  -19.3671 H   0  0  0  0  0  0  0  0  0  0  0  0
    3.4736    3.1457  -21.0957 H   0  0  0  0  0  0  0  0  0  0  0  0
    5.3895    4.1572  -17.6211 H   0  0  0  0  0  0  0  0  0  0  0  0
    5.2929    2.3867  -17.8090 H   0  0  0  0  0  0  0  0  0  0  0  0
  1  6  2  0
  1  2  1  0
 37  1  1  6
  2  3  2  0
  2 24  1  0
  3  4  1  0
  3 25  1  0
  4  5  2  0
  4 13  1  0
  5  6  1  0
  5  7  1  0
  6 26  1  0
  7 12  2  0
  7  8  1  0
  8  9  2  0
  8 27  1  0
  9 10  1  0
 10 28  1  0
 10 11  2  0
 11 12  1  0
 12 29  1  0
 14 15  1  0
 14 19  2  0
 14 37  1  0
 15 30  1  0
 15 16  2  0
 16 17  1  0
 16 31  1  0
 17 18  2  0
 18 19  1  0
 18 20  1  0
 19 32  1  0
 20 22  1  1
 20 21  1  0
 20 23  1  0
 33 34  1  0
 33 37  1  0
 34 43  1  1
 34 35  1  0
 34 42  1  0
 35 38  1  0
 35 36  2  0
 36 37  1  0
 36 41  1  0
 38 39  1  0
 38 40  1  0
M  CHG  1  36   1
M  END
