17374_cys
     RDKit          3D

 58 63  0  0  1  0  0  0  0  0999 V2000
    8.0859    5.1256   15.3633 C   0  0  0  0  0  0  0  0  0  0  0  0
    8.5070    6.3726   15.9092 C   0  0  0  0  0  0  0  0  0  0  0  0
    9.7824    6.5503   15.4567 C   0  0  0  0  0  0  0  0  0  0  0  0
   10.0568    5.4464   14.6824 N   0  0  0  0  0  0  0  0  0  0  0  0
    9.0373    4.5619   14.6341 N   0  0  0  0  0  0  0  0  0  0  0  0
    2.1861    8.1357   19.3625 C   0  0  0  0  0  0  0  0  0  0  0  0
    1.4098    7.0994   18.9116 C   0  0  0  0  0  0  0  0  0  0  0  0
    1.3687    8.9475   20.1287 N   0  0  0  0  0  0  0  0  0  0  0  0
    0.1096    7.2618   19.4657 C   0  0  0  0  0  0  0  0  0  0  0  0
    0.0874    8.4605   20.2368 C   0  0  0  0  0  0  0  0  0  0  0  0
   -1.0615    8.9082   20.9105 C   0  0  0  0  0  0  0  0  0  0  0  0
   -2.2323    8.1311   20.8523 C   0  0  0  0  0  0  0  0  0  0  0  0
   -2.2366    6.9226   20.1234 C   0  0  0  0  0  0  0  0  0  0  0  0
   -1.0823    6.5072   19.4258 C   0  0  0  0  0  0  0  0  0  0  0  0
   -3.4456    6.0074   20.1629 C   0  0  2  0  0  0  0  0  0  0  0  0
    7.7340    7.2661   16.7896 C   0  0  0  0  0  0  0  0  0  0  0  0
    8.3392    8.4048   17.3639 C   0  0  0  0  0  0  0  0  0  0  0  0
    7.6184    9.2323   18.2421 C   0  0  0  0  0  0  0  0  0  0  0  0
    6.3813    6.9889   17.0832 C   0  0  0  0  0  0  0  0  0  0  0  0
    5.6412    7.8125   17.9573 C   0  0  0  0  0  0  0  0  0  0  0  0
    6.2788    8.9294   18.5390 C   0  0  0  0  0  0  0  0  0  0  0  0
    5.5613    9.7356   19.4080 N   0  0  0  0  0  0  0  0  0  0  0  0
    4.2814    9.5137   19.7559 C   0  0  0  0  0  0  0  0  0  0  0  0
    3.5977    8.3791   19.1037 C   0  0  0  0  0  0  0  0  0  0  0  0
    4.2537    7.5495   18.2508 C   0  0  0  0  0  0  0  0  0  0  0  0
    3.7616   10.2599   20.5773 O   0  0  0  0  0  0  0  0  0  0  0  0
   -3.6149    5.3649   21.4916 N   0  0  1  0  0  0  0  0  0  0  0  0
   -4.8320    4.5136   21.5339 C   0  0  1  0  0  0  0  0  0  0  0  0
   -5.0950    3.9852   22.9556 C   0  0  1  0  0  0  0  0  0  0  0  0
   -3.8760    3.2296   23.5028 C   0  0  1  0  0  0  0  0  0  0  0  0
   -2.6272    4.1135   23.4043 C   0  0  1  0  0  0  0  0  0  0  0  0
   -2.4215    4.6088   21.9656 C   0  0  1  0  0  0  0  0  0  0  0  0
    7.1399    4.6152   15.4693 H   0  0  0  0  0  0  0  0  0  0  0  0
   10.4981    7.3445   15.6102 H   0  0  0  0  0  0  0  0  0  0  0  0
   10.9223    5.2805   14.1843 H   0  0  0  0  0  0  0  0  0  0  0  0
    1.6958    6.2873   18.2601 H   0  0  0  0  0  0  0  0  0  0  0  0
    1.7335    9.7883   20.5655 H   0  0  0  0  0  0  0  0  0  0  0  0
   -1.0346    9.8452   21.4492 H   0  0  0  0  0  0  0  0  0  0  0  0
   -3.1155    8.4805   21.3695 H   0  0  0  0  0  0  0  0  0  0  0  0
   -1.0819    5.6051   18.8316 H   0  0  0  0  0  0  0  0  0  0  0  0
   -3.3450    5.2483   19.3844 H   0  0  0  0  0  0  0  0  0  0  0  0
   -4.3339    6.5915   19.9117 H   0  0  0  0  0  0  0  0  0  0  0  0
    9.3650    8.6510   17.1361 H   0  0  0  0  0  0  0  0  0  0  0  0
    8.0988   10.0951   18.6801 H   0  0  0  0  0  0  0  0  0  0  0  0
    5.8904    6.1402   16.6317 H   0  0  0  0  0  0  0  0  0  0  0  0
    6.0215   10.5441   19.7943 H   0  0  0  0  0  0  0  0  0  0  0  0
    3.8251    6.6968   17.7512 H   0  0  0  0  0  0  0  0  0  0  0  0
   -5.6971    5.0839   21.1923 H   0  0  0  0  0  0  0  0  0  0  0  0
   -4.7184    3.6756   20.8427 H   0  0  0  0  0  0  0  0  0  0  0  0
   -5.3482    4.8098   23.6236 H   0  0  0  0  0  0  0  0  0  0  0  0
   -5.9635    3.3243   22.9509 H   0  0  0  0  0  0  0  0  0  0  0  0
   -4.0485    2.9318   24.5388 H   0  0  0  0  0  0  0  0  0  0  0  0
   -3.7252    2.3052   22.9422 H   0  0  0  0  0  0  0  0  0  0  0  0
   -2.7200    4.9590   24.0880 H   0  0  0  0  0  0  0  0  0  0  0  0
   -1.7509    3.5547   23.7384 H   0  0  0  0  0  0  0  0  0  0  0  0
   -2.2280    3.7693   21.2944 H   0  0  0  0  0  0  0  0  0  0  0  0
   -1.5273    5.2339   21.9456 H   0  0  0  0  0  0  0  0  0  0  0  0
   -3.7752    6.1201   22.1462 H   0  0  0  0  0  0  0  0  0  0  0  0
  1  2  1  0
  1  5  2  0
  1 33  1  0
  2  3  2  0
  2 16  1  0
  3  4  1  0
  3 34  1  0
  4  5  1  0
  4 35  1  0
  6  7  2  0
  6  8  1  0
  6 24  1  0
  7  9  1  0
  7 36  1  0
  8 10  1  0
  8 37  1  0
  9 10  2  0
  9 14  1  0
 10 11  1  0
 11 12  2  0
 11 38  1  0
 12 13  1  0
 12 39  1  0
 13 14  2  0
 13 15  1  0
 14 40  1  0
 15 27  1  0
 15 41  1  6
 15 42  1  0
 16 17  1  0
 16 19  2  0
 17 18  2  0
 17 43  1  0
 18 21  1  0
 18 44  1  0
 19 20  1  0
 19 45  1  0
 20 21  2  0
 20 25  1  0
 21 22  1  0
 22 23  1  0
 22 46  1  0
 23 24  1  0
 23 26  2  0
 24 25  2  0
 25 47  1  0
 27 28  1  0
 27 32  1  0
 27 58  1  1
 28 29  1  0
 28 48  1  6
 28 49  1  0
 29 30  1  0
 29 50  1  1
 29 51  1  0
 30 31  1  0
 30 52  1  1
 30 53  1  0
 31 32  1  0
 31 54  1  1
 31 55  1  0
 32 56  1  6
 32 57  1  0
M  CHG  1  27   1
M  END
