16
     RDKit          3D

 45 48  0  0  1  0  0  0  0  0999 V2000
    8.1365   10.7054   22.3914 H   0  0  0  0  0  0  0  0  0  0  0  0
    7.1905   10.7441   22.9105 C   0  0  0  0  0  0  0  0  0  0  0  0
    6.8005   11.9078   23.5948 C   0  0  0  0  0  0  0  0  0  0  0  0
    5.5679   11.9823   24.2894 C   0  0  0  0  0  0  0  0  0  0  0  0
    5.2551   13.2544   24.9715 C   0  0  0  0  0  0  0  0  0  0  0  0
    4.0189   13.8953   24.7799 C   0  0  0  0  0  0  0  0  0  0  0  0
    3.7398   15.0909   25.4529 C   0  0  0  0  0  0  0  0  0  0  0  0
    4.6066   15.6846   26.2895 N   0  0  0  0  0  0  0  0  0  0  0  0
    5.8056   15.0982   26.4544 C   0  0  0  0  0  0  0  0  0  0  0  0
    6.1835   13.9000   25.8204 C   0  0  0  0  0  0  0  0  0  0  0  0
    6.3409    9.6278   22.9037 C   0  0  0  0  0  0  0  0  0  0  0  0
    5.1112    9.6826   23.5777 C   0  0  0  0  0  0  0  0  0  0  0  0
    4.7061   10.8397   24.2829 C   0  0  0  0  0  0  0  0  0  0  0  0
    3.3548   10.7916   25.0193 C   0  0  2  0  0  0  0  0  0  0  0  0
    3.2677    9.6172   26.0211 C   0  0  2  0  0  0  0  0  0  0  0  0
    1.8980    9.4344   26.6898 C   0  0  0  0  0  0  0  0  0  0  0  0
    1.7329    8.7284   27.7353 N   0  0  0  0  0  0  0  0  0  0  0  0
    2.9369    8.1704   28.2368 O   0  0  0  0  0  0  0  0  0  0  0  0
    0.7246   10.1069   26.0370 C   0  0  0  0  0  0  0  0  0  0  0  0
    2.1751   10.7766   24.0311 C   0  0  2  0  0  0  0  0  0  0  0  0
    0.8478   10.7278   24.7629 C   0  0  0  0  0  0  0  0  0  0  0  0
   -0.1940   11.2970   24.1167 N   0  0  0  0  0  0  0  0  0  0  0  0
   -1.3720   11.2502   24.7319 C   0  0  0  0  0  0  0  0  0  0  0  0
   -2.4334   11.7955   24.0580 N   0  0  0  0  0  0  0  0  0  0  0  0
   -1.6173   10.7221   25.9279 N   0  0  0  0  0  0  0  0  0  0  0  0
   -0.5879   10.1547   26.5939 C   0  0  0  0  0  0  0  0  0  0  0  0
   -0.9510    9.5704   27.9619 C   0  0  1  0  0  0  0  0  0  0  0  0
    7.4570   12.7677   23.5729 H   0  0  0  0  0  0  0  0  0  0  0  0
    3.2829   13.4757   24.1193 H   0  0  0  0  0  0  0  0  0  0  0  0
    6.4869   15.5992   27.1236 H   0  0  0  0  0  0  0  0  0  0  0  0
    7.1646   13.4833   25.9883 H   0  0  0  0  0  0  0  0  0  0  0  0
    6.6312    8.7246   22.3916 H   0  0  0  0  0  0  0  0  0  0  0  0
    4.4810    8.8082   23.5658 H   0  0  0  0  0  0  0  0  0  0  0  0
    3.2396   11.6774   25.6383 H   0  0  0  0  0  0  0  0  0  0  0  0
    4.0428    9.7409   26.7730 H   0  0  0  0  0  0  0  0  0  0  0  0
    3.4864    8.6796   25.5164 H   0  0  0  0  0  0  0  0  0  0  0  0
    2.6046    7.5877   28.9116 H   0  0  0  0  0  0  0  0  0  0  0  0
    2.2260    9.8998   23.3922 H   0  0  0  0  0  0  0  0  0  0  0  0
    2.2000   11.6323   23.3535 H   0  0  0  0  0  0  0  0  0  0  0  0
   -3.3793   11.7780   24.4397 H   0  0  0  0  0  0  0  0  0  0  0  0
   -2.3122   12.2138   23.1475 H   0  0  0  0  0  0  0  0  0  0  0  0
   -1.9812    9.7266   28.2621 H   0  0  0  0  0  0  0  0  0  0  0  0
   -0.7763    8.5005   27.9843 H   0  0  0  0  0  0  0  0  0  0  0  0
   -0.3116    9.9761   28.7388 H   0  0  0  0  0  0  0  0  0  0  0  0
    2.7807   15.5629   25.3226 H   0  0  0  0  0  0  0  0  0  0  0  0
  1  2  1  0
  2  3  1  0
  2 11  2  0
  3  4  2  0
  3 28  1  0
  4  5  1  0
  4 13  1  0
  5  6  1  0
  5 10  2  0
  6  7  2  0
  6 29  1  0
  7  8  1  0
  7 45  1  0
  8  9  2  0
  9 10  1  0
  9 30  1  0
 10 31  1  0
 11 12  1  0
 11 32  1  0
 12 13  2  0
 12 33  1  0
 13 14  1  0
 14 15  1  0
 14 20  1  0
 14 34  1  1
 15 16  1  0
 15 35  1  1
 15 36  1  0
 16 17  2  0
 16 19  1  0
 17 18  1  0
 18 37  1  0
 19 21  1  0
 19 26  2  0
 20 21  1  0
 20 38  1  6
 20 39  1  0
 21 22  2  0
 22 23  1  0
 23 24  1  0
 23 25  2  0
 24 40  1  0
 24 41  1  0
 25 26  1  0
 26 27  1  0
 27 42  1  1
 27 43  1  0
 27 44  1  0
M  END
