14
     RDKit          3D

 43 46  0  0  1  0  0  0  0  0999 V2000
    8.1352   10.7039   22.3994 H   0  0  0  0  0  0  0  0  0  0  0  0
    7.1880   10.7422   22.9144 C   0  0  0  0  0  0  0  0  0  0  0  0
    6.7750   11.9253   23.5556 C   0  0  0  0  0  0  0  0  0  0  0  0
    5.5466   12.0019   24.2499 C   0  0  0  0  0  0  0  0  0  0  0  0
    5.2130   13.2944   24.8920 C   0  0  0  0  0  0  0  0  0  0  0  0
    3.9372   13.8704   24.7069 C   0  0  0  0  0  0  0  0  0  0  0  0
    3.5826   15.0799   25.3185 C   0  0  0  0  0  0  0  0  0  0  0  0
    4.5102   15.7604   26.1191 C   0  0  0  0  0  0  0  0  0  0  0  0
    5.8007   15.2274   26.2931 C   0  0  0  0  0  0  0  0  0  0  0  0
    6.1563   14.0067   25.6737 C   0  0  0  0  0  0  0  0  0  0  0  0
    6.3631    9.6106   22.9488 C   0  0  0  0  0  0  0  0  0  0  0  0
    5.1312    9.6680   23.6201 C   0  0  0  0  0  0  0  0  0  0  0  0
    4.7034   10.8402   24.2815 C   0  0  0  0  0  0  0  0  0  0  0  0
    3.3504   10.7895   25.0158 C   0  0  2  0  0  0  0  0  0  0  0  0
    3.2502    9.6147   26.0267 C   0  0  2  0  0  0  0  0  0  0  0  0
    1.8693    9.4412   26.6988 C   0  0  0  0  0  0  0  0  0  0  0  0
    1.6713    8.7540   27.7640 N   0  0  0  0  0  0  0  0  0  0  0  0
    2.8858    8.1828   28.2670 O   0  0  0  0  0  0  0  0  0  0  0  0
    0.7229   10.1174   26.0187 C   0  0  0  0  0  0  0  0  0  0  0  0
    2.1709   10.7751   24.0243 C   0  0  2  0  0  0  0  0  0  0  0  0
    0.8407   10.7354   24.7500 C   0  0  0  0  0  0  0  0  0  0  0  0
   -0.2086   11.3056   24.1098 N   0  0  0  0  0  0  0  0  0  0  0  0
   -1.3869   11.2582   24.7290 C   0  0  0  0  0  0  0  0  0  0  0  0
   -2.4513   11.8004   24.0507 N   0  0  0  0  0  0  0  0  0  0  0  0
   -1.6253   10.7293   25.9214 N   0  0  0  0  0  0  0  0  0  0  0  0
   -0.5801   10.1705   26.5686 C   0  0  0  0  0  0  0  0  0  0  0  0
    7.4158   12.7957   23.4997 H   0  0  0  0  0  0  0  0  0  0  0  0
    3.2034   13.3725   24.0971 H   0  0  0  0  0  0  0  0  0  0  0  0
    6.5051   15.7694   26.9041 H   0  0  0  0  0  0  0  0  0  0  0  0
    7.1602   13.6201   25.8058 H   0  0  0  0  0  0  0  0  0  0  0  0
    6.6711    8.6951   22.4678 H   0  0  0  0  0  0  0  0  0  0  0  0
    4.5190    8.7808   23.6365 H   0  0  0  0  0  0  0  0  0  0  0  0
    3.2536   11.6779   25.6323 H   0  0  0  0  0  0  0  0  0  0  0  0
    4.0324    9.7413   26.7697 H   0  0  0  0  0  0  0  0  0  0  0  0
    3.4805    8.6851   25.5141 H   0  0  0  0  0  0  0  0  0  0  0  0
    2.5705    7.5596   28.9171 H   0  0  0  0  0  0  0  0  0  0  0  0
    2.2343    9.8942   23.3921 H   0  0  0  0  0  0  0  0  0  0  0  0
    2.2058   11.6217   23.3376 H   0  0  0  0  0  0  0  0  0  0  0  0
   -3.3995   11.7864   24.4260 H   0  0  0  0  0  0  0  0  0  0  0  0
   -2.3282   12.2210   23.1437 H   0  0  0  0  0  0  0  0  0  0  0  0
    2.5827   15.4651   25.1878 H   0  0  0  0  0  0  0  0  0  0  0  0
    4.2295   16.6893   26.5936 H   0  0  0  0  0  0  0  0  0  0  0  0
   -0.8068    9.7495   27.5362 H   0  0  0  0  0  0  0  0  0  0  0  0
  1  2  1  0
  2  3  1  0
  2 11  2  0
  3  4  2  0
  3 27  1  0
  4  5  1  0
  4 13  1  0
  5  6  1  0
  5 10  2  0
  6  7  2  0
  6 28  1  0
  7  8  1  0
  7 41  1  0
  8  9  2  0
  8 42  1  0
  9 10  1  0
  9 29  1  0
 10 30  1  0
 11 12  1  0
 11 31  1  0
 12 13  2  0
 12 32  1  0
 13 14  1  0
 14 15  1  0
 14 20  1  0
 14 33  1  1
 15 16  1  0
 15 34  1  1
 15 35  1  0
 16 17  2  0
 16 19  1  0
 17 18  1  0
 18 36  1  0
 19 21  1  0
 19 26  2  0
 20 21  1  0
 20 37  1  6
 20 38  1  0
 21 22  2  0
 22 23  1  0
 23 24  1  0
 23 25  2  0
 24 39  1  0
 24 40  1  0
 25 26  1  0
 26 43  1  0
M  END
