17
     RDKit          3D

 45 48  0  0  1  0  0  0  0  0999 V2000
    8.1270   10.7079   22.3897 H   0  0  0  0  0  0  0  0  0  0  0  0
    7.1790   10.7438   22.9083 C   0  0  0  0  0  0  0  0  0  0  0  0
    6.8243   11.8833   23.6590 C   0  0  0  0  0  0  0  0  0  0  0  0
    5.5995   11.9627   24.3509 C   0  0  0  0  0  0  0  0  0  0  0  0
    5.3400   13.2005   25.1185 C   0  0  0  0  0  0  0  0  0  0  0  0
    6.2875   13.6791   26.0521 C   0  0  0  0  0  0  0  0  0  0  0  0
    6.1426   14.8081   26.7828 N   0  0  0  0  0  0  0  0  0  0  0  0
    5.0204   15.5334   26.5861 C   0  0  0  0  0  0  0  0  0  0  0  0
    4.0180   15.1656   25.6779 C   0  0  0  0  0  0  0  0  0  0  0  0
    4.1848   13.9841   24.9258 C   0  0  0  0  0  0  0  0  0  0  0  0
    6.2990    9.6604   22.8378 C   0  0  0  0  0  0  0  0  0  0  0  0
    5.0662    9.7207   23.5176 C   0  0  0  0  0  0  0  0  0  0  0  0
    4.6998   10.8480   24.2795 C   0  0  0  0  0  0  0  0  0  0  0  0
    3.3539   10.8056   25.0171 C   0  0  2  0  0  0  0  0  0  0  0  0
    3.2688    9.6229   26.0184 C   0  0  2  0  0  0  0  0  0  0  0  0
    1.9000    9.4370   26.6830 C   0  0  0  0  0  0  0  0  0  0  0  0
    1.7338    8.7255   27.7376 N   0  0  0  0  0  0  0  0  0  0  0  0
    2.9395    8.1723   28.2360 O   0  0  0  0  0  0  0  0  0  0  0  0
    0.7270   10.1070   26.0359 C   0  0  0  0  0  0  0  0  0  0  0  0
    2.1707   10.7835   24.0322 C   0  0  2  0  0  0  0  0  0  0  0  0
    0.8460   10.7296   24.7665 C   0  0  0  0  0  0  0  0  0  0  0  0
   -0.1978   11.2983   24.1154 N   0  0  0  0  0  0  0  0  0  0  0  0
   -1.3711   11.2483   24.7376 C   0  0  0  0  0  0  0  0  0  0  0  0
   -2.4330   11.7966   24.0560 N   0  0  0  0  0  0  0  0  0  0  0  0
   -1.6163   10.7229   25.9240 N   0  0  0  0  0  0  0  0  0  0  0  0
   -0.5873   10.1551   26.5924 C   0  0  0  0  0  0  0  0  0  0  0  0
   -0.9499    9.5716   27.9569 C   0  0  1  0  0  0  0  0  0  0  0  0
    7.5187   12.7112   23.6906 H   0  0  0  0  0  0  0  0  0  0  0  0
    7.2081   13.1401   26.2241 H   0  0  0  0  0  0  0  0  0  0  0  0
    4.9137   16.4257   27.1880 H   0  0  0  0  0  0  0  0  0  0  0  0
    3.1343   15.7728   25.5598 H   0  0  0  0  0  0  0  0  0  0  0  0
    3.4273   13.6862   24.2179 H   0  0  0  0  0  0  0  0  0  0  0  0
    6.5579    8.7802   22.2668 H   0  0  0  0  0  0  0  0  0  0  0  0
    4.4103    8.8674   23.4556 H   0  0  0  0  0  0  0  0  0  0  0  0
    3.2414   11.7019   25.6201 H   0  0  0  0  0  0  0  0  0  0  0  0
    4.0433    9.7422   26.7703 H   0  0  0  0  0  0  0  0  0  0  0  0
    3.4937    8.6898   25.5057 H   0  0  0  0  0  0  0  0  0  0  0  0
    2.6049    7.5937   28.9166 H   0  0  0  0  0  0  0  0  0  0  0  0
    2.2249    9.9054   23.3923 H   0  0  0  0  0  0  0  0  0  0  0  0
    2.2050   11.6439   23.3590 H   0  0  0  0  0  0  0  0  0  0  0  0
   -3.3761   11.7775   24.4397 H   0  0  0  0  0  0  0  0  0  0  0  0
   -2.3114   12.2123   23.1492 H   0  0  0  0  0  0  0  0  0  0  0  0
   -1.9827    9.7276   28.2623 H   0  0  0  0  0  0  0  0  0  0  0  0
   -0.7789    8.4974   27.9844 H   0  0  0  0  0  0  0  0  0  0  0  0
   -0.3121    9.9770   28.7411 H   0  0  0  0  0  0  0  0  0  0  0  0
  1  2  1  0
  2  3  1  0
  2 11  2  0
  3  4  2  0
  3 28  1  0
  4  5  1  0
  4 13  1  0
  5  6  1  0
  5 10  2  0
  6  7  2  0
  6 29  1  0
  7  8  1  0
  8  9  2  0
  8 30  1  0
  9 10  1  0
  9 31  1  0
 10 32  1  0
 11 12  1  0
 11 33  1  0
 12 13  2  0
 12 34  1  0
 13 14  1  0
 14 15  1  0
 14 20  1  0
 14 35  1  1
 15 16  1  0
 15 36  1  1
 15 37  1  0
 16 17  2  0
 16 19  1  0
 17 18  1  0
 18 38  1  0
 19 21  1  0
 19 26  2  0
 20 21  1  0
 20 39  1  6
 20 40  1  0
 21 22  2  0
 22 23  1  0
 23 24  1  0
 23 25  2  0
 24 41  1  0
 24 42  1  0
 25 26  1  0
 26 27  1  0
 27 43  1  1
 27 44  1  0
 27 45  1  0
M  END
