19
     RDKit          3D

 45 48  0  0  1  0  0  0  0  0999 V2000
    8.3039   10.5520   22.2875 F   0  0  0  0  0  0  0  0  0  0  0  0
    7.1353   10.7042   22.9286 C   0  0  0  0  0  0  0  0  0  0  0  0
    6.8152   11.8716   23.6589 C   0  0  0  0  0  0  0  0  0  0  0  0
    5.5924   11.9644   24.3523 C   0  0  0  0  0  0  0  0  0  0  0  0
    5.3365   13.2039   25.1178 C   0  0  0  0  0  0  0  0  0  0  0  0
    6.2881   13.6855   26.0475 C   0  0  0  0  0  0  0  0  0  0  0  0
    6.1435   14.8154   26.7768 N   0  0  0  0  0  0  0  0  0  0  0  0
    5.0187   15.5368   26.5824 C   0  0  0  0  0  0  0  0  0  0  0  0
    4.0139   15.1659   25.6783 C   0  0  0  0  0  0  0  0  0  0  0  0
    4.1802   13.9836   24.9270 C   0  0  0  0  0  0  0  0  0  0  0  0
    6.2575    9.6423   22.8527 C   0  0  0  0  0  0  0  0  0  0  0  0
    5.0335    9.7159   23.5297 C   0  0  0  0  0  0  0  0  0  0  0  0
    4.6860   10.8495   24.2857 C   0  0  0  0  0  0  0  0  0  0  0  0
    3.3469   10.8083   25.0222 C   0  0  2  0  0  0  0  0  0  0  0  0
    3.2666    9.6225   26.0211 C   0  0  2  0  0  0  0  0  0  0  0  0
    1.8991    9.4372   26.6834 C   0  0  0  0  0  0  0  0  0  0  0  0
    1.7330    8.7251   27.7400 N   0  0  0  0  0  0  0  0  0  0  0  0
    2.9392    8.1745   28.2370 O   0  0  0  0  0  0  0  0  0  0  0  0
    0.7280   10.1056   26.0377 C   0  0  0  0  0  0  0  0  0  0  0  0
    2.1685   10.7839   24.0337 C   0  0  2  0  0  0  0  0  0  0  0  0
    0.8449   10.7299   24.7659 C   0  0  0  0  0  0  0  0  0  0  0  0
   -0.1969   11.2978   24.1156 N   0  0  0  0  0  0  0  0  0  0  0  0
   -1.3713   11.2482   24.7371 C   0  0  0  0  0  0  0  0  0  0  0  0
   -2.4333   11.7964   24.0565 N   0  0  0  0  0  0  0  0  0  0  0  0
   -1.6151   10.7226   25.9244 N   0  0  0  0  0  0  0  0  0  0  0  0
   -0.5879   10.1556   26.5916 C   0  0  0  0  0  0  0  0  0  0  0  0
   -0.9495    9.5723   27.9564 C   0  0  1  0  0  0  0  0  0  0  0  0
    7.5181   12.6955   23.6852 H   0  0  0  0  0  0  0  0  0  0  0  0
    7.2102   13.1489   26.2166 H   0  0  0  0  0  0  0  0  0  0  0  0
    4.9117   16.4292   27.1837 H   0  0  0  0  0  0  0  0  0  0  0  0
    3.1282   15.7690   25.5620 H   0  0  0  0  0  0  0  0  0  0  0  0
    3.4211   13.6821   24.2216 H   0  0  0  0  0  0  0  0  0  0  0  0
    6.5399    8.7730   22.2781 H   0  0  0  0  0  0  0  0  0  0  0  0
    4.3879    8.8576   23.4635 H   0  0  0  0  0  0  0  0  0  0  0  0
    3.2374   11.7038   25.6238 H   0  0  0  0  0  0  0  0  0  0  0  0
    4.0433    9.7422   26.7703 H   0  0  0  0  0  0  0  0  0  0  0  0
    3.4921    8.6901   25.5072 H   0  0  0  0  0  0  0  0  0  0  0  0
    2.6038    7.5996   28.9204 H   0  0  0  0  0  0  0  0  0  0  0  0
    2.2236    9.9061   23.3932 H   0  0  0  0  0  0  0  0  0  0  0  0
    2.2040   11.6435   23.3583 H   0  0  0  0  0  0  0  0  0  0  0  0
   -3.3773   11.7779   24.4392 H   0  0  0  0  0  0  0  0  0  0  0  0
   -2.3124   12.2125   23.1496 H   0  0  0  0  0  0  0  0  0  0  0  0
   -1.9823    9.7265   28.2630 H   0  0  0  0  0  0  0  0  0  0  0  0
   -0.7777    8.4989   27.9853 H   0  0  0  0  0  0  0  0  0  0  0  0
   -0.3124    9.9733   28.7401 H   0  0  0  0  0  0  0  0  0  0  0  0
  1  2  1  0
  2  3  1  0
  2 11  2  0
  3  4  2  0
  3 28  1  0
  4  5  1  0
  4 13  1  0
  5  6  1  0
  5 10  2  0
  6  7  2  0
  6 29  1  0
  7  8  1  0
  8  9  2  0
  8 30  1  0
  9 10  1  0
  9 31  1  0
 10 32  1  0
 11 12  1  0
 11 33  1  0
 12 13  2  0
 12 34  1  0
 13 14  1  0
 14 15  1  0
 14 20  1  0
 14 35  1  1
 15 16  1  0
 15 36  1  1
 15 37  1  0
 16 17  2  0
 16 19  1  0
 17 18  1  0
 18 38  1  0
 19 21  1  0
 19 26  2  0
 20 21  1  0
 20 39  1  6
 20 40  1  0
 21 22  2  0
 22 23  1  0
 23 24  1  0
 23 25  2  0
 24 41  1  0
 24 42  1  0
 25 26  1  0
 26 27  1  0
 27 43  1  1
 27 44  1  0
 27 45  1  0
M  END
