20669
     RDKit          3D

 42 44  0  0  1  0  0  0  0  0999 V2000
   43.4349   13.9762   16.5152 S   0  0  0  0  0  0  0  0  0  0  0  0
   43.2388   15.3847   15.4302 C   0  0  0  0  0  0  0  0  0  0  0  0
   42.3225   15.1290   14.5121 C   0  0  0  0  0  0  0  0  0  0  0  0
   41.7595   13.7729   14.6019 C   0  0  0  0  0  0  0  0  0  0  0  0
   42.1868   13.0208   15.6281 C   0  0  0  0  0  0  0  0  0  0  0  0
   43.9400   16.6164   15.7216 C   0  0  0  0  0  0  0  0  0  0  0  0
   44.3927   16.6325   16.8863 O   0  0  0  0  0  0  0  0  0  0  0  0
   44.0706   17.5599   14.9107 O   0  0  0  0  0  0  0  0  0  0  0  0
   41.8822   11.6386   16.0501 C   0  0  0  0  0  0  0  0  0  0  0  0
   40.5678   11.0458   15.8591 C   0  0  0  0  0  0  0  0  0  0  0  0
   40.3696    9.6768   16.2269 C   0  0  0  0  0  0  0  0  0  0  0  0
   41.4677    8.9015   16.8005 C   0  0  0  0  0  0  0  0  0  0  0  0
   42.7809    9.4864   17.0095 C   0  0  0  0  0  0  0  0  0  0  0  0
   42.9621   10.8634   16.6495 C   0  0  0  0  0  0  0  0  0  0  0  0
   40.5693   13.1554   13.2593 Br  0  0  0  0  0  0  0  0  0  0  0  0
   42.0383   16.0154   13.5689 O   0  0  0  0  0  0  0  0  0  0  0  0
   40.8225   16.7172   13.7275 C   0  0  2  0  0  0  0  0  0  0  0  0
   40.5922   17.4164   12.4629 C   0  0  0  0  0  0  0  0  0  0  0  0
   39.4465   17.8760   12.3022 O   0  0  0  0  0  0  0  0  0  0  0  0
   41.5197   17.5214   11.6281 O   0  0  0  0  0  0  0  0  0  0  0  0
   39.1083    9.2240   15.9963 N   0  0  0  0  0  0  0  0  0  0  0  0
   38.6498    7.8606   16.2522 C   0  0  1  0  0  0  0  0  0  0  0  0
   39.7916   11.6486   15.4432 H   0  0  0  0  0  0  0  0  0  0  0  0
   41.3270    7.8677   17.0712 H   0  0  0  0  0  0  0  0  0  0  0  0
   43.5914    8.9073   17.4273 H   0  0  0  0  0  0  0  0  0  0  0  0
   43.9419   11.2993   16.7823 H   0  0  0  0  0  0  0  0  0  0  0  0
   40.9173   17.4455   14.5357 H   0  0  0  0  0  0  0  0  0  0  0  0
   39.9903   16.0541   13.9763 H   0  0  0  0  0  0  0  0  0  0  0  0
   38.5055    9.8294   15.4372 H   0  0  0  0  0  0  0  0  0  0  0  0
   39.3680    7.2566   16.8053 H   0  0  0  0  0  0  0  0  0  0  0  0
   37.7611    7.9093   16.8842 H   0  0  0  0  0  0  0  0  0  0  0  0
   37.6106    5.7904   12.6247 C   0  0  0  0  0  0  0  0  0  0  0  0
   38.9382    5.8164   13.0478 C   0  0  0  0  0  0  0  0  0  0  0  0
   39.2782    6.5002   14.2127 C   0  0  0  0  0  0  0  0  0  0  0  0
   38.2904    7.1593   14.9499 C   0  0  0  0  0  0  0  0  0  0  0  0
   36.9617    7.1407   14.5113 C   0  0  0  0  0  0  0  0  0  0  0  0
   36.6214    6.4549   13.3476 C   0  0  0  0  0  0  0  0  0  0  0  0
   37.3478    5.2550   11.7234 H   0  0  0  0  0  0  0  0  0  0  0  0
   39.7043    5.3075   12.4790 H   0  0  0  0  0  0  0  0  0  0  0  0
   40.3080    6.5198   14.5435 H   0  0  0  0  0  0  0  0  0  0  0  0
   36.1921    7.6534   15.0726 H   0  0  0  0  0  0  0  0  0  0  0  0
   35.5941    6.4373   13.0115 H   0  0  0  0  0  0  0  0  0  0  0  0
  1  2  1  0
  1  5  1  0
  2  3  2  0
  2  6  1  0
  3  4  1  0
  3 16  1  0
  4  5  2  0
  4 15  1  0
  5  9  1  0
  6  7  2  0
  6  8  1  0
  9 10  1  0
  9 14  2  0
 10 11  2  0
 10 23  1  0
 11 12  1  0
 11 21  1  0
 12 13  2  0
 12 24  1  0
 13 14  1  0
 13 25  1  0
 14 26  1  0
 16 17  1  0
 17 18  1  0
 17 27  1  1
 17 28  1  0
 18 19  1  0
 18 20  2  0
 21 22  1  0
 21 29  1  0
 22 30  1  1
 22 31  1  0
 22 35  1  0
 32 33  2  0
 32 37  1  0
 32 38  1  0
 33 34  1  0
 33 39  1  0
 34 35  2  0
 34 40  1  0
 35 36  1  0
 36 37  2  0
 36 41  1  0
 37 42  1  0
M  CHG  2   8  -1  19  -1
M  END
