23471
     RDKit          3D

 35 36  0  0  1  0  0  0  0  0999 V2000
   43.4349   13.9762   16.5152 S   0  0  0  0  0  0  0  0  0  0  0  0
   43.2388   15.3847   15.4302 C   0  0  0  0  0  0  0  0  0  0  0  0
   42.3225   15.1290   14.5121 C   0  0  0  0  0  0  0  0  0  0  0  0
   41.7595   13.7729   14.6019 C   0  0  0  0  0  0  0  0  0  0  0  0
   42.1868   13.0208   15.6281 C   0  0  0  0  0  0  0  0  0  0  0  0
   43.9400   16.6164   15.7216 C   0  0  0  0  0  0  0  0  0  0  0  0
   44.3927   16.6325   16.8863 O   0  0  0  0  0  0  0  0  0  0  0  0
   44.0706   17.5599   14.9107 O   0  0  0  0  0  0  0  0  0  0  0  0
   41.8822   11.6386   16.0501 C   0  0  0  0  0  0  0  0  0  0  0  0
   40.5678   11.0458   15.8591 C   0  0  0  0  0  0  0  0  0  0  0  0
   40.3696    9.6768   16.2269 C   0  0  0  0  0  0  0  0  0  0  0  0
   41.4677    8.9015   16.8005 C   0  0  0  0  0  0  0  0  0  0  0  0
   42.7809    9.4864   17.0095 C   0  0  0  0  0  0  0  0  0  0  0  0
   42.9621   10.8634   16.6495 C   0  0  0  0  0  0  0  0  0  0  0  0
   40.5671   13.1518   13.2624 Br  0  0  0  0  0  0  0  0  0  0  0  0
   42.0383   16.0154   13.5689 O   0  0  0  0  0  0  0  0  0  0  0  0
   40.8225   16.7172   13.7275 C   0  0  2  0  0  0  0  0  0  0  0  0
   40.5922   17.4164   12.4629 C   0  0  0  0  0  0  0  0  0  0  0  0
   39.4465   17.8760   12.3022 O   0  0  0  0  0  0  0  0  0  0  0  0
   41.5197   17.5214   11.6281 O   0  0  0  0  0  0  0  0  0  0  0  0
   39.1083    9.2240   15.9963 N   0  0  0  0  0  0  0  0  0  0  0  0
   39.7937   11.6531   15.4429 H   0  0  0  0  0  0  0  0  0  0  0  0
   41.3245    7.8664   17.0713 H   0  0  0  0  0  0  0  0  0  0  0  0
   43.5914    8.9077   17.4280 H   0  0  0  0  0  0  0  0  0  0  0  0
   43.9419   11.2992   16.7827 H   0  0  0  0  0  0  0  0  0  0  0  0
   40.9170   17.4457   14.5355 H   0  0  0  0  0  0  0  0  0  0  0  0
   39.9903   16.0541   13.9760 H   0  0  0  0  0  0  0  0  0  0  0  0
   38.5142    9.8527   15.4708 H   0  0  0  0  0  0  0  0  0  0  0  0
   38.5316    8.0044   16.2959 C   0  0  0  0  0  0  0  0  0  0  0  0
   39.0081    7.0863   16.9664 O   0  0  0  0  0  0  0  0  0  0  0  0
   37.3220    7.9682   15.7230 O   0  0  0  0  0  0  0  0  0  0  0  0
   36.5168    6.7984   15.7967 C   0  0  2  0  0  0  0  0  0  0  0  0
   35.6082    6.9381   15.2111 H   0  0  0  0  0  0  0  0  0  0  0  0
   36.2260    6.5854   16.8264 H   0  0  0  0  0  0  0  0  0  0  0  0
   37.0408    5.9290   15.3965 H   0  0  0  0  0  0  0  0  0  0  0  0
  1  2  1  0
  1  5  1  0
  2  3  2  0
  2  6  1  0
  3  4  1  0
  3 16  1  0
  4  5  2  0
  4 15  1  0
  5  9  1  0
  6  7  2  0
  6  8  1  0
  9 10  1  0
  9 14  2  0
 10 11  2  0
 10 22  1  0
 11 12  1  0
 11 21  1  0
 12 13  2  0
 12 23  1  0
 13 14  1  0
 13 24  1  0
 14 25  1  0
 16 17  1  0
 17 18  1  0
 17 26  1  1
 17 27  1  0
 18 19  1  0
 18 20  2  0
 21 28  1  0
 21 29  1  0
 29 30  2  0
 29 31  1  0
 31 32  1  0
 32 33  1  6
 32 34  1  0
 32 35  1  0
M  CHG  2   8  -1  19  -1
M  END
