23483
     RDKit          3D

 57 60  0  0  1  0  0  0  0  0999 V2000
   43.4349   13.9762   16.5152 S   0  0  0  0  0  0  0  0  0  0  0  0
   43.2388   15.3847   15.4302 C   0  0  0  0  0  0  0  0  0  0  0  0
   42.3225   15.1290   14.5121 C   0  0  0  0  0  0  0  0  0  0  0  0
   41.7595   13.7729   14.6019 C   0  0  0  0  0  0  0  0  0  0  0  0
   42.1868   13.0208   15.6281 C   0  0  0  0  0  0  0  0  0  0  0  0
   43.9400   16.6164   15.7216 C   0  0  0  0  0  0  0  0  0  0  0  0
   44.3927   16.6325   16.8863 O   0  0  0  0  0  0  0  0  0  0  0  0
   44.0706   17.5599   14.9107 O   0  0  0  0  0  0  0  0  0  0  0  0
   41.8822   11.6386   16.0501 C   0  0  0  0  0  0  0  0  0  0  0  0
   40.5678   11.0458   15.8591 C   0  0  0  0  0  0  0  0  0  0  0  0
   40.3696    9.6768   16.2269 C   0  0  0  0  0  0  0  0  0  0  0  0
   41.4677    8.9015   16.8005 C   0  0  0  0  0  0  0  0  0  0  0  0
   42.7809    9.4864   17.0095 C   0  0  0  0  0  0  0  0  0  0  0  0
   42.9621   10.8634   16.6495 C   0  0  0  0  0  0  0  0  0  0  0  0
   40.5688   13.1530   13.2604 Br  0  0  0  0  0  0  0  0  0  0  0  0
   42.0383   16.0154   13.5689 O   0  0  0  0  0  0  0  0  0  0  0  0
   40.8225   16.7172   13.7275 C   0  0  1  0  0  0  0  0  0  0  0  0
   40.5922   17.4164   12.4629 C   0  0  0  0  0  0  0  0  0  0  0  0
   39.4465   17.8760   12.3022 O   0  0  0  0  0  0  0  0  0  0  0  0
   41.5197   17.5214   11.6281 O   0  0  0  0  0  0  0  0  0  0  0  0
   39.1083    9.2240   15.9963 N   0  0  0  0  0  0  0  0  0  0  0  0
   38.8278    7.8651   15.6453 C   0  0  1  0  0  0  0  0  0  0  0  0
   37.3098    7.7080   15.5483 C   0  0  2  0  0  0  0  0  0  0  0  0
   36.8797    6.3606   15.0162 C   0  0  2  0  0  0  0  0  0  0  0  0
   37.6451    6.1119   13.7935 N   0  0  0  0  0  0  0  0  0  0  0  0
   39.1091    6.1658   13.7891 C   0  0  2  0  0  0  0  0  0  0  0  0
   39.5301    7.5042   14.3382 C   0  0  2  0  0  0  0  0  0  0  0  0
   36.9212    4.8807   12.7261 S   0  0  2  0  0  0  0  0  0  0  0  0
   37.5994    4.9381   11.4269 O   0  0  0  0  0  0  0  0  0  0  0  0
   35.4585    5.0212   12.7715 O   0  0  0  0  0  0  0  0  0  0  0  0
   39.7923   11.6505   15.4451 H   0  0  0  0  0  0  0  0  0  0  0  0
   41.3039    7.8696   17.0714 H   0  0  0  0  0  0  0  0  0  0  0  0
   43.5907    8.9077   17.4289 H   0  0  0  0  0  0  0  0  0  0  0  0
   43.9418   11.2995   16.7826 H   0  0  0  0  0  0  0  0  0  0  0  0
   39.9904   16.0540   13.9761 H   0  0  0  0  0  0  0  0  0  0  0  0
   40.9171   17.4454   14.5357 H   0  0  0  0  0  0  0  0  0  0  0  0
   38.5792    9.8944   15.4383 H   0  0  0  0  0  0  0  0  0  0  0  0
   39.2004    7.2101   16.4369 H   0  0  0  0  0  0  0  0  0  0  0  0
   36.9010    8.4797   14.8909 H   0  0  0  0  0  0  0  0  0  0  0  0
   36.8512    7.8742   16.5241 H   0  0  0  0  0  0  0  0  0  0  0  0
   35.8107    6.3542   14.7991 H   0  0  0  0  0  0  0  0  0  0  0  0
   37.0821    5.5513   15.7198 H   0  0  0  0  0  0  0  0  0  0  0  0
   39.4796    6.0236   12.7723 H   0  0  0  0  0  0  0  0  0  0  0  0
   39.4868    5.3389   14.3932 H   0  0  0  0  0  0  0  0  0  0  0  0
   40.6128    7.5063   14.4698 H   0  0  0  0  0  0  0  0  0  0  0  0
   39.3168    8.2677   13.5870 H   0  0  0  0  0  0  0  0  0  0  0  0
   38.0300    0.8989   14.6990 C   0  0  0  0  0  0  0  0  0  0  0  0
   36.8191    1.5114   15.0173 C   0  0  0  0  0  0  0  0  0  0  0  0
   36.4753    2.7176   14.4117 C   0  0  0  0  0  0  0  0  0  0  0  0
   37.3448    3.3053   13.4865 C   0  0  0  0  0  0  0  0  0  0  0  0
   38.5615    2.6884   13.1755 C   0  0  0  0  0  0  0  0  0  0  0  0
   38.9025    1.4821   13.7818 C   0  0  0  0  0  0  0  0  0  0  0  0
   38.2962   -0.0383   15.1690 H   0  0  0  0  0  0  0  0  0  0  0  0
   36.1499    1.0518   15.7321 H   0  0  0  0  0  0  0  0  0  0  0  0
   35.5369    3.1949   14.6609 H   0  0  0  0  0  0  0  0  0  0  0  0
   39.2421    3.1438   12.4679 H   0  0  0  0  0  0  0  0  0  0  0  0
   39.8410    1.0011   13.5414 H   0  0  0  0  0  0  0  0  0  0  0  0
  1  2  1  0
  1  5  1  0
  2  3  2  0
  2  6  1  0
  3  4  1  0
  3 16  1  0
  4  5  2  0
  4 15  1  0
  5  9  1  0
  6  7  2  0
  6  8  1  0
  9 10  1  0
  9 14  2  0
 10 11  2  0
 10 31  1  0
 11 12  1  0
 11 21  1  0
 12 13  2  0
 12 32  1  0
 13 14  1  0
 13 33  1  0
 14 34  1  0
 16 17  1  0
 17 18  1  0
 17 35  1  1
 17 36  1  0
 18 19  1  0
 18 20  2  0
 21 22  1  0
 21 37  1  0
 22 23  1  0
 22 27  1  0
 22 38  1  1
 23 24  1  0
 23 39  1  6
 23 40  1  0
 24 25  1  0
 24 41  1  6
 24 42  1  0
 25 26  1  0
 28 25  1  1
 26 27  1  0
 26 43  1  6
 26 44  1  0
 27 45  1  1
 27 46  1  0
 28 29  2  0
 28 30  2  0
 28 50  1  0
 47 48  2  0
 47 52  1  0
 47 53  1  0
 48 49  1  0
 48 54  1  0
 49 50  2  0
 49 55  1  0
 50 51  1  0
 51 52  2  0
 51 56  1  0
 52 57  1  0
M  CHG  2   8  -1  19  -1
M  END
