23480
     RDKit          3D

 50 52  0  0  1  0  0  0  0  0999 V2000
   43.4349   13.9762   16.5152 S   0  0  0  0  0  0  0  0  0  0  0  0
   43.2388   15.3847   15.4302 C   0  0  0  0  0  0  0  0  0  0  0  0
   42.3225   15.1290   14.5121 C   0  0  0  0  0  0  0  0  0  0  0  0
   41.7595   13.7729   14.6019 C   0  0  0  0  0  0  0  0  0  0  0  0
   42.1868   13.0208   15.6281 C   0  0  0  0  0  0  0  0  0  0  0  0
   43.9400   16.6164   15.7216 C   0  0  0  0  0  0  0  0  0  0  0  0
   44.3927   16.6325   16.8863 O   0  0  0  0  0  0  0  0  0  0  0  0
   44.0706   17.5599   14.9107 O   0  0  0  0  0  0  0  0  0  0  0  0
   41.8822   11.6386   16.0501 C   0  0  0  0  0  0  0  0  0  0  0  0
   40.5678   11.0458   15.8591 C   0  0  0  0  0  0  0  0  0  0  0  0
   40.3696    9.6768   16.2269 C   0  0  0  0  0  0  0  0  0  0  0  0
   41.4677    8.9015   16.8005 C   0  0  0  0  0  0  0  0  0  0  0  0
   42.7809    9.4864   17.0095 C   0  0  0  0  0  0  0  0  0  0  0  0
   42.9621   10.8634   16.6495 C   0  0  0  0  0  0  0  0  0  0  0  0
   40.5690   13.1530   13.2601 Br  0  0  0  0  0  0  0  0  0  0  0  0
   42.0383   16.0154   13.5689 O   0  0  0  0  0  0  0  0  0  0  0  0
   40.8225   16.7172   13.7275 C   0  0  2  0  0  0  0  0  0  0  0  0
   40.5922   17.4164   12.4629 C   0  0  0  0  0  0  0  0  0  0  0  0
   39.4465   17.8760   12.3022 O   0  0  0  0  0  0  0  0  0  0  0  0
   41.5197   17.5214   11.6281 O   0  0  0  0  0  0  0  0  0  0  0  0
   39.1083    9.2240   15.9963 N   0  0  0  0  0  0  0  0  0  0  0  0
   38.8278    7.8651   15.6453 C   0  0  1  0  0  0  0  0  0  0  0  0
   37.3098    7.7080   15.5483 C   0  0  2  0  0  0  0  0  0  0  0  0
   36.8797    6.3606   15.0162 C   0  0  2  0  0  0  0  0  0  0  0  0
   37.6451    6.1119   13.7935 N   0  0  0  0  0  0  0  0  0  0  0  0
   39.1091    6.1658   13.7891 C   0  0  2  0  0  0  0  0  0  0  0  0
   39.5301    7.5042   14.3382 C   0  0  2  0  0  0  0  0  0  0  0  0
   39.7921   11.6503   15.4452 H   0  0  0  0  0  0  0  0  0  0  0  0
   41.3039    7.8696   17.0713 H   0  0  0  0  0  0  0  0  0  0  0  0
   43.5907    8.9077   17.4289 H   0  0  0  0  0  0  0  0  0  0  0  0
   43.9417   11.2996   16.7826 H   0  0  0  0  0  0  0  0  0  0  0  0
   40.9171   17.4454   14.5357 H   0  0  0  0  0  0  0  0  0  0  0  0
   39.9904   16.0540   13.9761 H   0  0  0  0  0  0  0  0  0  0  0  0
   38.5786    9.8923   15.4365 H   0  0  0  0  0  0  0  0  0  0  0  0
   39.2005    7.2103   16.4371 H   0  0  0  0  0  0  0  0  0  0  0  0
   36.8977    8.4790   14.8921 H   0  0  0  0  0  0  0  0  0  0  0  0
   36.8526    7.8713   16.5253 H   0  0  0  0  0  0  0  0  0  0  0  0
   35.7970    6.3414   14.8701 H   0  0  0  0  0  0  0  0  0  0  0  0
   37.1205    5.5771   15.7365 H   0  0  0  0  0  0  0  0  0  0  0  0
   39.5369    6.0195   12.7951 H   0  0  0  0  0  0  0  0  0  0  0  0
   39.4885    5.3629   14.4234 H   0  0  0  0  0  0  0  0  0  0  0  0
   40.6125    7.5037   14.4720 H   0  0  0  0  0  0  0  0  0  0  0  0
   39.3194    8.2673   13.5858 H   0  0  0  0  0  0  0  0  0  0  0  0
   36.9198    5.5648   12.7165 C   0  0  0  0  0  0  0  0  0  0  0  0
   35.7098    5.7212   12.5140 O   0  0  0  0  0  0  0  0  0  0  0  0
   37.6697    4.7309   11.9603 O   0  0  0  0  0  0  0  0  0  0  0  0
   37.0280    3.7695   11.1249 C   0  0  1  0  0  0  0  0  0  0  0  0
   36.5450    4.2493   10.2731 H   0  0  0  0  0  0  0  0  0  0  0  0
   37.7509    3.0475   10.7465 H   0  0  0  0  0  0  0  0  0  0  0  0
   36.2704    3.2074   11.6742 H   0  0  0  0  0  0  0  0  0  0  0  0
  1  2  1  0
  1  5  1  0
  2  3  2  0
  2  6  1  0
  3  4  1  0
  3 16  1  0
  4  5  2  0
  4 15  1  0
  5  9  1  0
  6  7  2  0
  6  8  1  0
  9 10  1  0
  9 14  2  0
 10 11  2  0
 10 28  1  0
 11 12  1  0
 11 21  1  0
 12 13  2  0
 12 29  1  0
 13 14  1  0
 13 30  1  0
 14 31  1  0
 16 17  1  0
 17 18  1  0
 17 32  1  1
 17 33  1  0
 18 19  1  0
 18 20  2  0
 21 22  1  0
 21 34  1  0
 22 23  1  0
 22 27  1  0
 22 35  1  1
 23 24  1  0
 23 36  1  6
 23 37  1  0
 24 25  1  0
 24 38  1  6
 24 39  1  0
 25 26  1  0
 25 44  1  0
 26 27  1  0
 26 40  1  6
 26 41  1  0
 27 42  1  1
 27 43  1  0
 44 45  2  0
 44 46  1  0
 46 47  1  0
 47 48  1  6
 47 49  1  0
 47 50  1  0
M  CHG  2   8  -1  19  -1
M  END
