23476
     RDKit          3D

 48 50  0  0  1  0  0  0  0  0999 V2000
   43.4349   13.9762   16.5152 S   0  0  0  0  0  0  0  0  0  0  0  0
   43.2388   15.3847   15.4302 C   0  0  0  0  0  0  0  0  0  0  0  0
   42.3225   15.1290   14.5121 C   0  0  0  0  0  0  0  0  0  0  0  0
   41.7595   13.7729   14.6019 C   0  0  0  0  0  0  0  0  0  0  0  0
   42.1868   13.0208   15.6281 C   0  0  0  0  0  0  0  0  0  0  0  0
   43.9400   16.6164   15.7216 C   0  0  0  0  0  0  0  0  0  0  0  0
   44.3927   16.6325   16.8863 O   0  0  0  0  0  0  0  0  0  0  0  0
   44.0706   17.5599   14.9107 O   0  0  0  0  0  0  0  0  0  0  0  0
   41.8822   11.6386   16.0501 C   0  0  0  0  0  0  0  0  0  0  0  0
   40.5678   11.0458   15.8591 C   0  0  0  0  0  0  0  0  0  0  0  0
   40.3696    9.6768   16.2269 C   0  0  0  0  0  0  0  0  0  0  0  0
   41.4677    8.9015   16.8005 C   0  0  0  0  0  0  0  0  0  0  0  0
   42.7809    9.4864   17.0095 C   0  0  0  0  0  0  0  0  0  0  0  0
   42.9621   10.8634   16.6495 C   0  0  0  0  0  0  0  0  0  0  0  0
   40.5690   13.1542   13.2597 Br  0  0  0  0  0  0  0  0  0  0  0  0
   42.0383   16.0154   13.5689 O   0  0  0  0  0  0  0  0  0  0  0  0
   40.8225   16.7172   13.7275 C   0  0  2  0  0  0  0  0  0  0  0  0
   40.5922   17.4164   12.4629 C   0  0  0  0  0  0  0  0  0  0  0  0
   39.4465   17.8760   12.3022 O   0  0  0  0  0  0  0  0  0  0  0  0
   41.5197   17.5214   11.6281 O   0  0  0  0  0  0  0  0  0  0  0  0
   39.1083    9.2240   15.9963 N   0  0  0  0  0  0  0  0  0  0  0  0
   39.7905   11.6487   15.4460 H   0  0  0  0  0  0  0  0  0  0  0  0
   41.3103    7.8687   17.0708 H   0  0  0  0  0  0  0  0  0  0  0  0
   43.5907    8.9075   17.4285 H   0  0  0  0  0  0  0  0  0  0  0  0
   43.9418   11.2995   16.7827 H   0  0  0  0  0  0  0  0  0  0  0  0
   40.9172   17.4456   14.5355 H   0  0  0  0  0  0  0  0  0  0  0  0
   39.9903   16.0541   13.9762 H   0  0  0  0  0  0  0  0  0  0  0  0
   38.5494    9.8074   15.3729 H   0  0  0  0  0  0  0  0  0  0  0  0
   39.5318    7.2169   15.7402 H   0  0  0  0  0  0  0  0  0  0  0  0
   38.7170    7.8263   16.1412 C   0  0  1  0  0  0  0  0  0  0  0  0
   38.5206    7.4400   17.6274 C   0  0  2  0  0  0  0  0  0  0  0  0
   38.8336    5.9594   17.9310 C   0  0  1  0  0  0  0  0  0  0  0  0
   37.8226    4.9320   17.3913 C   0  0  2  0  0  0  0  0  0  0  0  0
   37.5280    5.0077   15.8799 C   0  0  1  0  0  0  0  0  0  0  0  0
   36.6983    6.2404   15.4732 C   0  0  1  0  0  0  0  0  0  0  0  0
   37.4798    7.5559   15.2545 C   0  0  1  0  0  0  0  0  0  0  0  0
   37.5123    7.6934   17.9570 H   0  0  0  0  0  0  0  0  0  0  0  0
   39.1861    8.0362   18.2532 H   0  0  0  0  0  0  0  0  0  0  0  0
   39.8278    5.7203   17.5511 H   0  0  0  0  0  0  0  0  0  0  0  0
   38.9032    5.8316   19.0125 H   0  0  0  0  0  0  0  0  0  0  0  0
   36.8870    5.0221   17.9460 H   0  0  0  0  0  0  0  0  0  0  0  0
   38.1987    3.9341   17.6230 H   0  0  0  0  0  0  0  0  0  0  0  0
   38.4515    4.9540   15.3008 H   0  0  0  0  0  0  0  0  0  0  0  0
   36.9598    4.1158   15.6105 H   0  0  0  0  0  0  0  0  0  0  0  0
   36.1520    6.0178   14.5550 H   0  0  0  0  0  0  0  0  0  0  0  0
   35.9231    6.4067   16.2232 H   0  0  0  0  0  0  0  0  0  0  0  0
   36.7664    8.3773   15.3501 H   0  0  0  0  0  0  0  0  0  0  0  0
   37.8106    7.5892   14.2149 H   0  0  0  0  0  0  0  0  0  0  0  0
  1  2  1  0
  1  5  1  0
  2  3  2  0
  2  6  1  0
  3  4  1  0
  3 16  1  0
  4  5  2  0
  4 15  1  0
  5  9  1  0
  6  7  2  0
  6  8  1  0
  9 10  1  0
  9 14  2  0
 10 11  2  0
 10 22  1  0
 11 12  1  0
 11 21  1  0
 12 13  2  0
 12 23  1  0
 13 14  1  0
 13 24  1  0
 14 25  1  0
 16 17  1  0
 17 18  1  0
 17 26  1  1
 17 27  1  0
 18 19  1  0
 18 20  2  0
 21 28  1  0
 21 30  1  0
 30 29  1  6
 30 31  1  0
 30 36  1  0
 31 32  1  0
 31 37  1  1
 31 38  1  0
 32 33  1  0
 32 39  1  6
 32 40  1  0
 33 34  1  0
 33 41  1  1
 33 42  1  0
 34 35  1  0
 34 43  1  6
 34 44  1  0
 35 36  1  0
 35 45  1  6
 35 46  1  0
 36 47  1  6
 36 48  1  0
M  CHG  2   8  -1  19  -1
M  END
