23484
     RDKit          3D

 60 63  0  0  1  0  0  0  0  0999 V2000
   43.4349   13.9762   16.5152 S   0  0  0  0  0  0  0  0  0  0  0  0
   43.2388   15.3847   15.4302 C   0  0  0  0  0  0  0  0  0  0  0  0
   42.3225   15.1290   14.5121 C   0  0  0  0  0  0  0  0  0  0  0  0
   41.7595   13.7729   14.6019 C   0  0  0  0  0  0  0  0  0  0  0  0
   42.1868   13.0208   15.6281 C   0  0  0  0  0  0  0  0  0  0  0  0
   43.9400   16.6164   15.7216 C   0  0  0  0  0  0  0  0  0  0  0  0
   44.3927   16.6325   16.8863 O   0  0  0  0  0  0  0  0  0  0  0  0
   44.0706   17.5599   14.9107 O   0  0  0  0  0  0  0  0  0  0  0  0
   41.8822   11.6386   16.0501 C   0  0  0  0  0  0  0  0  0  0  0  0
   40.5678   11.0458   15.8591 C   0  0  0  0  0  0  0  0  0  0  0  0
   40.3696    9.6768   16.2269 C   0  0  0  0  0  0  0  0  0  0  0  0
   41.4677    8.9015   16.8005 C   0  0  0  0  0  0  0  0  0  0  0  0
   42.7809    9.4864   17.0095 C   0  0  0  0  0  0  0  0  0  0  0  0
   42.9621   10.8634   16.6495 C   0  0  0  0  0  0  0  0  0  0  0  0
   42.0383   16.0154   13.5689 O   0  0  0  0  0  0  0  0  0  0  0  0
   40.8225   16.7172   13.7275 C   0  0  2  0  0  0  0  0  0  0  0  0
   40.5922   17.4164   12.4629 C   0  0  0  0  0  0  0  0  0  0  0  0
   39.4465   17.8760   12.3022 O   0  0  0  0  0  0  0  0  0  0  0  0
   41.5197   17.5214   11.6281 O   0  0  0  0  0  0  0  0  0  0  0  0
   39.1083    9.2240   15.9963 N   0  0  0  0  0  0  0  0  0  0  0  0
   38.8278    7.8651   15.6453 C   0  0  1  0  0  0  0  0  0  0  0  0
   37.3098    7.7080   15.5483 C   0  0  2  0  0  0  0  0  0  0  0  0
   36.8797    6.3606   15.0162 C   0  0  2  0  0  0  0  0  0  0  0  0
   37.6451    6.1119   13.7935 N   0  0  0  0  0  0  0  0  0  0  0  0
   39.1091    6.1658   13.7891 C   0  0  2  0  0  0  0  0  0  0  0  0
   39.5301    7.5042   14.3382 C   0  0  2  0  0  0  0  0  0  0  0  0
   36.8271    5.0850   12.5942 S   0  0  2  0  0  0  0  0  0  0  0  0
   37.6608    5.0112   11.3942 O   0  0  0  0  0  0  0  0  0  0  0  0
   35.4374    5.5435   12.4708 O   0  0  0  0  0  0  0  0  0  0  0  0
   36.8129    3.3913   13.4008 C   0  0  2  0  0  0  0  0  0  0  0  0
   36.1892    2.3341   12.5054 C   0  0  0  0  0  0  0  0  0  0  0  0
   36.9940    1.6134   11.6207 C   0  0  0  0  0  0  0  0  0  0  0  0
   36.4211    0.6593   10.7847 C   0  0  0  0  0  0  0  0  0  0  0  0
   35.0484    0.4272   10.8390 C   0  0  0  0  0  0  0  0  0  0  0  0
   34.2435    1.1375   11.7264 C   0  0  0  0  0  0  0  0  0  0  0  0
   34.8141    2.0942   12.5620 C   0  0  0  0  0  0  0  0  0  0  0  0
   39.7924   11.6509   15.4452 H   0  0  0  0  0  0  0  0  0  0  0  0
   41.3036    7.8697   17.0715 H   0  0  0  0  0  0  0  0  0  0  0  0
   43.5907    8.9077   17.4289 H   0  0  0  0  0  0  0  0  0  0  0  0
   43.9418   11.2995   16.7826 H   0  0  0  0  0  0  0  0  0  0  0  0
   40.9172   17.4454   14.5358 H   0  0  0  0  0  0  0  0  0  0  0  0
   39.9904   16.0539   13.9762 H   0  0  0  0  0  0  0  0  0  0  0  0
   38.5796    9.8940   15.4374 H   0  0  0  0  0  0  0  0  0  0  0  0
   39.2004    7.2119   16.4377 H   0  0  0  0  0  0  0  0  0  0  0  0
   36.9011    8.4789   14.8900 H   0  0  0  0  0  0  0  0  0  0  0  0
   36.8511    7.8747   16.5239 H   0  0  0  0  0  0  0  0  0  0  0  0
   35.8098    6.3485   14.8015 H   0  0  0  0  0  0  0  0  0  0  0  0
   37.0818    5.5514   15.7200 H   0  0  0  0  0  0  0  0  0  0  0  0
   39.4818    6.0238   12.7732 H   0  0  0  0  0  0  0  0  0  0  0  0
   39.4868    5.3356   14.3884 H   0  0  0  0  0  0  0  0  0  0  0  0
   40.6127    7.5066   14.4696 H   0  0  0  0  0  0  0  0  0  0  0  0
   39.3160    8.2672   13.5868 H   0  0  0  0  0  0  0  0  0  0  0  0
   36.2709    3.4979   14.3368 H   0  0  0  0  0  0  0  0  0  0  0  0
   37.8484    3.1587   13.6377 H   0  0  0  0  0  0  0  0  0  0  0  0
   38.0586    1.7971   11.5663 H   0  0  0  0  0  0  0  0  0  0  0  0
   37.0396    0.1073   10.0898 H   0  0  0  0  0  0  0  0  0  0  0  0
   34.6014   -0.3027   10.1781 H   0  0  0  0  0  0  0  0  0  0  0  0
   33.1775    0.9575   11.7549 H   0  0  0  0  0  0  0  0  0  0  0  0
   34.1817    2.6553   13.2365 H   0  0  0  0  0  0  0  0  0  0  0  0
   41.0449   13.4351   13.8660 H   0  0  0  0  0  0  0  0  0  0  0  0
  1  2  1  0
  1  5  1  0
  2  3  2  0
  2  6  1  0
  3  4  1  0
  3 15  1  0
  4  5  2  0
  4 60  1  0
  5  9  1  0
  6  7  2  0
  6  8  1  0
  9 10  1  0
  9 14  2  0
 10 11  2  0
 10 37  1  0
 11 12  1  0
 11 20  1  0
 12 13  2  0
 12 38  1  0
 13 14  1  0
 13 39  1  0
 14 40  1  0
 15 16  1  0
 16 17  1  0
 16 41  1  1
 16 42  1  0
 17 18  1  0
 17 19  2  0
 20 21  1  0
 20 43  1  0
 21 22  1  0
 21 26  1  0
 21 44  1  1
 22 23  1  0
 22 45  1  6
 22 46  1  0
 23 24  1  0
 23 47  1  6
 23 48  1  0
 24 25  1  0
 27 24  1  1
 25 26  1  0
 25 49  1  6
 25 50  1  0
 26 51  1  1
 26 52  1  0
 27 28  2  0
 27 29  2  0
 27 30  1  0
 30 31  1  0
 30 53  1  1
 30 54  1  0
 31 32  2  0
 31 36  1  0
 32 33  1  0
 32 55  1  0
 33 34  2  0
 33 56  1  0
 34 35  1  0
 34 57  1  0
 35 36  2  0
 35 58  1  0
 36 59  1  0
M  CHG  2   8  -1  18  -1
M  END
