ligand_64
     RDKit          3D

 69 72  0  0  1  0  0  0  0  0999 V2000
   12.0930   -1.3050   -0.9330 C   0  0  2  0  0  0  0  0  0  0  0  0
   13.5860   -1.4270   -1.0820 C   0  0  0  0  0  0  0  0  0  0  0  0
   14.2710   -2.1580   -2.0290 C   0  0  0  0  0  0  0  0  0  0  0  0
   13.7702   -3.0826   -3.1164 C   0  0  1  0  0  0  0  0  0  0  0  0
   13.0054   -2.4627   -4.3160 C   0  0  1  0  0  0  0  0  0  0  0  0
   13.6318   -1.3031   -5.1450 C   0  0  1  0  0  0  0  0  0  0  0  0
   14.7255   -1.6254   -6.1168 N   0  0  1  0  0  0  0  0  0  0  0  0
   14.5998   -2.8070   -6.9906 C   0  0  1  0  0  0  0  0  0  0  0  0
   15.6073   -3.8984   -6.5755 C   0  0  1  0  0  0  0  0  0  0  0  0
   15.4125   -4.3088   -5.1459 C   0  0  2  0  0  0  0  0  0  0  0  0
   15.2682   -5.1279   -7.3650 C   0  0  2  0  0  0  0  0  0  0  0  0
   17.0985   -3.5841   -6.8657 C   0  0  1  0  0  0  0  0  0  0  0  0
   17.7270   -2.5430   -6.0390 N   0  0  0  0  0  0  0  0  0  0  0  0
   17.7650   -2.8280   -4.6920 C   0  0  0  0  0  0  0  0  0  0  0  0
   16.7660   -2.2660   -3.8660 C   0  0  0  0  0  0  0  0  0  0  0  0
   16.7280   -2.5330   -2.5090 C   0  0  0  0  0  0  0  0  0  0  0  0
   17.7110   -3.3090   -1.9100 C   0  0  0  0  0  0  0  0  0  0  0  0
   18.7240   -3.8490   -2.7110 C   0  0  0  0  0  0  0  0  0  0  0  0
   18.7610   -3.6100   -4.0990 C   0  0  0  0  0  0  0  0  0  0  0  0
   19.8790   -4.1680   -4.9400 C   0  0  0  0  0  0  0  0  0  0  0  0
   20.5620   -5.1990   -4.4130 N   0  0  0  0  0  0  0  0  0  0  0  0
   20.2000   -3.6860   -6.0390 O   0  0  0  0  0  0  0  0  0  0  0  0
   15.6320   -1.9850   -1.7900 N   0  0  0  0  0  0  0  0  0  0  0  0
   15.7870   -1.1560   -0.6970 C   0  0  0  0  0  0  0  0  0  0  0  0
   14.5300   -0.7960   -0.2490 C   0  0  0  0  0  0  0  0  0  0  0  0
   14.3560    0.1090    0.8890 C   0  0  0  0  0  0  0  0  0  0  0  0
   13.2500    0.5680    1.1700 O   0  0  0  0  0  0  0  0  0  0  0  0
   15.6250    0.6950    1.5040 C   0  0  1  0  0  0  0  0  0  0  0  0
   16.8450    0.6940    0.5590 C   0  0  2  0  0  0  0  0  0  0  0  0
   18.0980    1.0970    1.3400 C   0  0  2  0  0  0  0  0  0  0  0  0
   16.6130    1.7530   -0.5420 C   0  0  2  0  0  0  0  0  0  0  0  0
   17.0760   -0.6870   -0.0890 C   0  0  1  0  0  0  0  0  0  0  0  0
   11.5646   -2.0235   -1.5576 H   0  0  0  0  0  0  0  0  0  0  0  0
   11.7652   -0.3007   -1.2022 H   0  0  0  0  0  0  0  0  0  0  0  0
   11.7998   -1.4892    0.1013 H   0  0  0  0  0  0  0  0  0  0  0  0
   14.5735   -3.7166   -3.4842 H   0  0  0  0  0  0  0  0  0  0  0  0
   13.0949   -3.7947   -2.6393 H   0  0  0  0  0  0  0  0  0  0  0  0
   12.6726   -3.2682   -4.9694 H   0  0  0  0  0  0  0  0  0  0  0  0
   12.0792   -2.0627   -3.9006 H   0  0  0  0  0  0  0  0  0  0  0  0
   12.8284   -0.8502   -5.7284 H   0  0  0  0  0  0  0  0  0  0  0  0
   13.9747   -0.5158   -4.4709 H   0  0  0  0  0  0  0  0  0  0  0  0
   14.8557   -0.8178   -6.7108 H   0  0  0  0  0  0  0  0  0  0  0  0
   13.5799   -3.1918   -6.9986 H   0  0  0  0  0  0  0  0  0  0  0  0
   14.8103   -2.5017   -8.0168 H   0  0  0  0  0  0  0  0  0  0  0  0
   16.1389   -5.0791   -4.8868 H   0  0  0  0  0  0  0  0  0  0  0  0
   14.4042   -4.7014   -5.0148 H   0  0  0  0  0  0  0  0  0  0  0  0
   15.5530   -3.4441   -4.4973 H   0  0  0  0  0  0  0  0  0  0  0  0
   15.9582   -5.9299   -7.1029 H   0  0  0  0  0  0  0  0  0  0  0  0
   15.3516   -4.9104   -8.4298 H   0  0  0  0  0  0  0  0  0  0  0  0
   14.2482   -5.4368   -7.1361 H   0  0  0  0  0  0  0  0  0  0  0  0
   17.6745   -4.5052   -6.7550 H   0  0  0  0  0  0  0  0  0  0  0  0
   17.2181   -3.3038   -7.9140 H   0  0  0  0  0  0  0  0  0  0  0  0
   18.7030   -2.4822   -6.3562 H   0  0  0  0  0  0  0  0  0  0  0  0
   16.0775   -1.5299   -4.2084 H   0  0  0  0  0  0  0  0  0  0  0  0
   17.6825   -3.5063   -0.8473 H   0  0  0  0  0  0  0  0  0  0  0  0
   19.4908   -4.4321   -2.2237 H   0  0  0  0  0  0  0  0  0  0  0  0
   20.3075   -5.5951   -3.5243 H   0  0  0  0  0  0  0  0  0  0  0  0
   21.3401   -5.5650   -4.9409 H   0  0  0  0  0  0  0  0  0  0  0  0
   15.4093    1.7053    1.8522 H   0  0  0  0  0  0  0  0  0  0  0  0
   15.8458    0.1035    2.3923 H   0  0  0  0  0  0  0  0  0  0  0  0
   17.9849    2.0812    1.7971 H   0  0  0  0  0  0  0  0  0  0  0  0
   18.9785    1.1362    0.6973 H   0  0  0  0  0  0  0  0  0  0  0  0
   18.3125    0.3912    2.1437 H   0  0  0  0  0  0  0  0  0  0  0  0
   17.4710    1.8201   -1.2119 H   0  0  0  0  0  0  0  0  0  0  0  0
   16.4661    2.7447   -0.1116 H   0  0  0  0  0  0  0  0  0  0  0  0
   15.7420    1.5454   -1.1636 H   0  0  0  0  0  0  0  0  0  0  0  0
   17.4034   -1.4096    0.6600 H   0  0  0  0  0  0  0  0  0  0  0  0
   17.8670   -0.6277   -0.8378 H   0  0  0  0  0  0  0  0  0  0  0  0
   15.6158   -1.7558   -5.6439 H   0  0  0  0  0  0  0  0  0  0  0  0
  1  2  1  0
  1 33  1  6
  1 34  1  0
  1 35  1  0
  2 25  1  0
  2  3  2  0
  3 23  1  0
  3  4  1  0
  4  5  1  0
  4 36  1  6
  4 37  1  0
  5  6  1  0
  5 38  1  6
  5 39  1  0
  6  7  1  0
  6 40  1  6
  6 41  1  0
  7  8  1  0
  7 42  1  6
  7 69  1  0
  8  9  1  0
  8 43  1  6
  8 44  1  0
  9 10  1  0
  9 11  1  0
  9 12  1  1
 10 45  1  1
 10 46  1  0
 10 47  1  0
 11 48  1  1
 11 49  1  0
 11 50  1  0
 12 13  1  0
 12 51  1  6
 12 52  1  0
 13 14  1  0
 13 53  1  0
 14 19  1  0
 14 15  2  0
 15 16  1  0
 15 54  1  0
 16 17  2  0
 16 23  1  0
 17 18  1  0
 17 55  1  0
 18 19  2  0
 18 56  1  0
 19 20  1  0
 20 21  1  0
 20 22  2  0
 21 57  1  0
 21 58  1  0
 23 24  1  0
 24 32  1  0
 24 25  2  0
 25 26  1  0
 26 27  2  0
 26 28  1  0
 29 28  1  1
 28 59  1  1
 28 60  1  0
 29 30  1  0
 29 31  1  0
 29 32  1  0
 30 61  1  1
 30 62  1  0
 30 63  1  0
 31 64  1  6
 31 65  1  0
 31 66  1  0
 32 67  1  1
 32 68  1  0
M  CHG  1   7   1
M  END
