ligand_69
     RDKit          3D

 80 84  0  0  1  0  0  0  0  0999 V2000
   15.4780   -4.4160   -7.2700 C   0  0  2  0  0  0  0  0  0  0  0  0
   15.3440   -3.1150   -6.4840 C   0  0  2  0  0  0  0  0  0  0  0  0
   13.9730   -2.4470   -6.7210 C   0  0  1  0  0  0  0  0  0  0  0  0
   13.0400   -2.7320   -5.6120 N   0  0  0  0  0  0  0  0  0  0  0  0
   13.3200   -2.0850   -4.3170 C   0  0  1  0  0  0  0  0  0  0  0  0
   13.7240   -3.0010   -3.1530 C   0  0  1  0  0  0  0  0  0  0  0  0
   14.2710   -2.1580   -2.0290 C   0  0  0  0  0  0  0  0  0  0  0  0
   13.5860   -1.4270   -1.0820 C   0  0  0  0  0  0  0  0  0  0  0  0
   12.0930   -1.3050   -0.9330 C   0  0  2  0  0  0  0  0  0  0  0  0
   14.5300   -0.7960   -0.2490 C   0  0  0  0  0  0  0  0  0  0  0  0
   15.7870   -1.1560   -0.6970 C   0  0  0  0  0  0  0  0  0  0  0  0
   17.0760   -0.6870   -0.0890 C   0  0  1  0  0  0  0  0  0  0  0  0
   16.8450    0.6940    0.5590 C   0  0  2  0  0  0  0  0  0  0  0  0
   16.6130    1.7530   -0.5420 C   0  0  2  0  0  0  0  0  0  0  0  0
   18.0980    1.0970    1.3400 C   0  0  2  0  0  0  0  0  0  0  0  0
   15.6250    0.6950    1.5040 C   0  0  1  0  0  0  0  0  0  0  0  0
   14.3560    0.1090    0.8890 C   0  0  0  0  0  0  0  0  0  0  0  0
   13.2500    0.5680    1.1700 O   0  0  0  0  0  0  0  0  0  0  0  0
   15.6320   -1.9850   -1.7900 N   0  0  0  0  0  0  0  0  0  0  0  0
   16.7280   -2.5330   -2.5090 C   0  0  0  0  0  0  0  0  0  0  0  0
   17.7110   -3.3090   -1.9100 C   0  0  0  0  0  0  0  0  0  0  0  0
   18.7240   -3.8490   -2.7110 C   0  0  0  0  0  0  0  0  0  0  0  0
   18.7610   -3.6100   -4.0990 C   0  0  0  0  0  0  0  0  0  0  0  0
   19.8790   -4.1680   -4.9400 C   0  0  0  0  0  0  0  0  0  0  0  0
   20.5620   -5.1990   -4.4130 N   0  0  0  0  0  0  0  0  0  0  0  0
   20.2000   -3.6860   -6.0390 O   0  0  0  0  0  0  0  0  0  0  0  0
   17.7650   -2.8280   -4.6920 C   0  0  0  0  0  0  0  0  0  0  0  0
   17.7270   -2.5430   -6.0390 N   0  0  0  0  0  0  0  0  0  0  0  0
   16.5200   -2.1260   -6.7240 C   0  0  1  0  0  0  0  0  0  0  0  0
   16.8660   -1.8310   -8.1890 C   0  0  2  0  0  0  0  0  0  0  0  0
   16.7660   -2.2660   -3.8660 C   0  0  0  0  0  0  0  0  0  0  0  0
   11.9580   -3.5520   -5.7550 C   0  0  0  0  0  0  0  0  0  0  0  0
   11.1990   -3.7930   -4.8060 O   0  0  0  0  0  0  0  0  0  0  0  0
   11.8211   -4.0986   -7.1452 C   0  0  2  0  0  0  0  0  0  0  0  0
   10.8251   -3.2985   -7.9922 C   0  0  1  0  0  0  0  0  0  0  0  0
    9.4485   -3.9546   -7.7916 C   0  0  1  0  0  0  0  0  0  0  0  0
    9.6589   -5.1414   -6.8439 C   0  0  1  0  0  0  0  0  0  0  0  0
   11.1514   -5.4753   -7.0034 N   0  0  1  0  0  0  0  0  0  0  0  0
   14.6950   -5.1234   -6.9964 H   0  0  0  0  0  0  0  0  0  0  0  0
   16.4367   -4.8943   -7.0661 H   0  0  0  0  0  0  0  0  0  0  0  0
   15.4129   -4.2497   -8.3451 H   0  0  0  0  0  0  0  0  0  0  0  0
   15.3514   -3.4601   -5.4593 H   0  0  0  0  0  0  0  0  0  0  0  0
   14.0760   -1.3634   -6.7909 H   0  0  0  0  0  0  0  0  0  0  0  0
   13.5548   -2.7497   -7.6827 H   0  0  0  0  0  0  0  0  0  0  0  0
   14.0458   -1.2919   -4.4685 H   0  0  0  0  0  0  0  0  0  0  0  0
   12.4232   -1.5401   -4.0165 H   0  0  0  0  0  0  0  0  0  0  0  0
   12.8645   -3.5711   -2.7999 H   0  0  0  0  0  0  0  0  0  0  0  0
   14.4543   -3.7463   -3.4618 H   0  0  0  0  0  0  0  0  0  0  0  0
   11.7813   -0.2739   -1.1006 H   0  0  0  0  0  0  0  0  0  0  0  0
   11.7875   -1.5948    0.0725 H   0  0  0  0  0  0  0  0  0  0  0  0
   11.5633   -1.9396   -1.6429 H   0  0  0  0  0  0  0  0  0  0  0  0
   17.4050   -1.4115    0.6570 H   0  0  0  0  0  0  0  0  0  0  0  0
   17.8635   -0.6268   -0.8416 H   0  0  0  0  0  0  0  0  0  0  0  0
   15.7445    1.5405   -1.1665 H   0  0  0  0  0  0  0  0  0  0  0  0
   17.4704    1.8187   -1.2129 H   0  0  0  0  0  0  0  0  0  0  0  0
   16.4623    2.7452   -0.1150 H   0  0  0  0  0  0  0  0  0  0  0  0
   17.9855    2.0821    1.7950 H   0  0  0  0  0  0  0  0  0  0  0  0
   18.9773    1.1338    0.6954 H   0  0  0  0  0  0  0  0  0  0  0  0
   18.3119    0.3909    2.1434 H   0  0  0  0  0  0  0  0  0  0  0  0
   15.8455    0.1027    2.3915 H   0  0  0  0  0  0  0  0  0  0  0  0
   15.4088    1.7054    1.8507 H   0  0  0  0  0  0  0  0  0  0  0  0
   17.6781   -3.5070   -0.8485 H   0  0  0  0  0  0  0  0  0  0  0  0
   19.4898   -4.4330   -2.2254 H   0  0  0  0  0  0  0  0  0  0  0  0
   20.2787   -5.6023   -3.5374 H   0  0  0  0  0  0  0  0  0  0  0  0
   21.3264   -5.5751   -4.9501 H   0  0  0  0  0  0  0  0  0  0  0  0
   18.5327   -2.8472   -6.5858 H   0  0  0  0  0  0  0  0  0  0  0  0
   16.2482   -1.1603   -6.2961 H   0  0  0  0  0  0  0  0  0  0  0  0
   17.6223   -1.0487   -8.2637 H   0  0  0  0  0  0  0  0  0  0  0  0
   15.9881   -1.4873   -8.7363 H   0  0  0  0  0  0  0  0  0  0  0  0
   17.2525   -2.7124   -8.7014 H   0  0  0  0  0  0  0  0  0  0  0  0
   16.0408   -1.5843   -4.2607 H   0  0  0  0  0  0  0  0  0  0  0  0
   12.8110   -4.2190   -7.5919 H   0  0  0  0  0  0  0  0  0  0  0  0
   10.8187   -2.2498   -7.6869 H   0  0  0  0  0  0  0  0  0  0  0  0
   11.1196   -3.3121   -9.0440 H   0  0  0  0  0  0  0  0  0  0  0  0
    8.7275   -3.2521   -7.3676 H   0  0  0  0  0  0  0  0  0  0  0  0
    9.0284   -4.2914   -8.7419 H   0  0  0  0  0  0  0  0  0  0  0  0
    9.5172   -4.8668   -5.7952 H   0  0  0  0  0  0  0  0  0  0  0  0
    9.0609   -6.0260   -7.0758 H   0  0  0  0  0  0  0  0  0  0  0  0
   11.3045   -6.0317   -7.8335 H   0  0  0  0  0  0  0  0  0  0  0  0
   11.5223   -6.0237   -6.2385 H   0  0  0  0  0  0  0  0  0  0  0  0
  1  2  1  0
  1 39  1  1
  1 40  1  0
  1 41  1  0
  2 29  1  0
  2  3  1  0
  2 42  1  1
  3  4  1  0
  3 43  1  6
  3 44  1  0
  4  5  1  0
  4 32  1  0
  5  6  1  0
  5 45  1  6
  5 46  1  0
  6  7  1  0
  6 47  1  1
  6 48  1  0
  7 19  1  0
  7  8  2  0
  8  9  1  0
  8 10  1  0
  9 49  1  6
  9 50  1  0
  9 51  1  0
 10 17  1  0
 10 11  2  0
 11 12  1  0
 11 19  1  0
 13 12  1  6
 12 52  1  1
 12 53  1  0
 13 14  1  0
 13 15  1  0
 13 16  1  0
 14 54  1  6
 14 55  1  0
 14 56  1  0
 15 57  1  1
 15 58  1  0
 15 59  1  0
 16 17  1  0
 16 60  1  1
 16 61  1  0
 17 18  2  0
 19 20  1  0
 20 31  1  0
 20 21  2  0
 21 22  1  0
 21 62  1  0
 22 23  2  0
 22 63  1  0
 23 24  1  0
 23 27  1  0
 24 25  1  0
 24 26  2  0
 25 64  1  0
 25 65  1  0
 27 28  1  0
 27 31  2  0
 28 29  1  0
 28 66  1  0
 29 30  1  0
 29 67  1  1
 30 68  1  1
 30 69  1  0
 30 70  1  0
 31 71  1  0
 32 33  2  0
 32 34  1  0
 34 38  1  0
 34 35  1  0
 34 72  1  6
 35 36  1  0
 35 73  1  1
 35 74  1  0
 36 37  1  0
 36 75  1  1
 36 76  1  0
 37 38  1  0
 37 77  1  1
 37 78  1  0
 38 79  1  6
 38 80  1  0
M  CHG  1  38   1
M  END
