lignad_65
     RDKit          3D

 66 69  0  0  1  0  0  0  0  0999 V2000
   12.1437   -1.4835   -0.7447 C   0  0  2  0  0  0  0  0  0  0  0  0
   13.6337   -1.4701   -0.9168 C   0  0  0  0  0  0  0  0  0  0  0  0
   14.3435   -2.1855   -1.8419 C   0  0  0  0  0  0  0  0  0  0  0  0
   13.8614   -3.1493   -2.8871 C   0  0  1  0  0  0  0  0  0  0  0  0
   13.3953   -2.4785   -4.1985 C   0  0  1  0  0  0  0  0  0  0  0  0
   13.4535   -3.4183   -5.4198 C   0  0  1  0  0  0  0  0  0  0  0  0
   14.8229   -3.5735   -6.0053 N   0  0  2  0  0  0  0  0  0  0  0  0
   15.1764   -2.5697   -7.0542 C   0  0  2  0  0  0  0  0  0  0  0  0
   16.4795   -1.7990   -6.7168 C   0  0  1  0  0  0  0  0  0  0  0  0
   17.5016   -2.6412   -6.0863 N   0  0  0  0  0  0  0  0  0  0  0  0
   17.6222   -2.7603   -4.6921 C   0  0  0  0  0  0  0  0  0  0  0  0
   16.7459   -2.1010   -3.8086 C   0  0  0  0  0  0  0  0  0  0  0  0
   16.7453   -2.3995   -2.4374 C   0  0  0  0  0  0  0  0  0  0  0  0
   17.7094   -3.2750   -1.9042 C   0  0  0  0  0  0  0  0  0  0  0  0
   18.6524   -3.8692   -2.7672 C   0  0  0  0  0  0  0  0  0  0  0  0
   18.5972   -3.6275   -4.1566 C   0  0  0  0  0  0  0  0  0  0  0  0
   19.5732   -4.3313   -5.0523 C   0  0  0  0  0  0  0  0  0  0  0  0
   20.4121   -5.1039   -4.3615 N   0  0  0  0  0  0  0  0  0  0  0  0
   19.6163   -4.2267   -6.2746 O   0  0  0  0  0  0  0  0  0  0  0  0
   15.6935   -1.8851   -1.6542 N   0  0  0  0  0  0  0  0  0  0  0  0
   15.8119   -0.9855   -0.6062 C   0  0  0  0  0  0  0  0  0  0  0  0
   14.5574   -0.7291   -0.1301 C   0  0  0  0  0  0  0  0  0  0  0  0
   14.3669    0.2001    1.0067 C   0  0  0  0  0  0  0  0  0  0  0  0
   13.2558    0.5487    1.3964 O   0  0  0  0  0  0  0  0  0  0  0  0
   15.6420    0.6891    1.7092 C   0  0  1  0  0  0  0  0  0  0  0  0
   16.8492    0.8373    0.7504 C   0  0  1  0  0  0  0  0  0  0  0  0
   16.5680    1.9954   -0.1604 C   0  0  2  0  0  0  0  0  0  0  0  0
   18.0876    1.2028    1.5138 C   0  0  2  0  0  0  0  0  0  0  0  0
   17.1038   -0.4142   -0.1138 C   0  0  1  0  0  0  0  0  0  0  0  0
   11.6977   -2.1414   -1.4906 H   0  0  0  0  0  0  0  0  0  0  0  0
   11.7542   -0.4734   -0.8718 H   0  0  0  0  0  0  0  0  0  0  0  0
   11.8965   -1.8453    0.2533 H   0  0  0  0  0  0  0  0  0  0  0  0
   14.6387   -3.8864   -3.0878 H   0  0  0  0  0  0  0  0  0  0  0  0
   13.0362   -3.7316   -2.4735 H   0  0  0  0  0  0  0  0  0  0  0  0
   12.3679   -2.1426   -4.0465 H   0  0  0  0  0  0  0  0  0  0  0  0
   13.9464   -1.5637   -4.4049 H   0  0  0  0  0  0  0  0  0  0  0  0
   13.0567   -4.3844   -5.1035 H   0  0  0  0  0  0  0  0  0  0  0  0
   12.7628   -3.0724   -6.1912 H   0  0  0  0  0  0  0  0  0  0  0  0
   14.3733   -1.8395   -7.1737 H   0  0  0  0  0  0  0  0  0  0  0  0
   17.0724   -1.2121   -8.0113 C   0  0  1  0  0  0  0  0  0  0  0  0
   16.2625   -0.9177   -6.1141 H   0  0  0  0  0  0  0  0  0  0  0  0
   18.3506   -2.8055   -6.6220 H   0  0  0  0  0  0  0  0  0  0  0  0
   16.0200   -1.3846   -4.1459 H   0  0  0  0  0  0  0  0  0  0  0  0
   17.7117   -3.5040   -0.8473 H   0  0  0  0  0  0  0  0  0  0  0  0
   19.3980   -4.5415   -2.3658 H   0  0  0  0  0  0  0  0  0  0  0  0
   20.4120   -5.2190   -3.3581 H   0  0  0  0  0  0  0  0  0  0  0  0
   21.1502   -5.6685   -4.7572 H   0  0  0  0  0  0  0  0  0  0  0  0
   15.4297    1.6392    2.1995 H   0  0  0  0  0  0  0  0  0  0  0  0
   15.8788   -0.0261    2.4964 H   0  0  0  0  0  0  0  0  0  0  0  0
   17.4021    2.1262   -0.8499 H   0  0  0  0  0  0  0  0  0  0  0  0
   16.4412    2.9013    0.4323 H   0  0  0  0  0  0  0  0  0  0  0  0
   15.6566    1.8004   -0.7255 H   0  0  0  0  0  0  0  0  0  0  0  0
   18.9244    1.3022    0.8225 H   0  0  0  0  0  0  0  0  0  0  0  0
   18.3088    0.4227    2.2423 H   0  0  0  0  0  0  0  0  0  0  0  0
   17.9294    2.1489    2.0313 H   0  0  0  0  0  0  0  0  0  0  0  0
   17.6217   -1.1673    0.4814 H   0  0  0  0  0  0  0  0  0  0  0  0
   17.7632   -0.1653   -0.9463 H   0  0  0  0  0  0  0  0  0  0  0  0
   15.5249   -3.4663   -5.2811 H   0  0  0  0  0  0  0  0  0  0  0  0
   14.9444   -4.9665   -6.6013 C   0  0  1  0  0  0  0  0  0  0  0  0
   15.3161   -3.0909   -8.0013 H   0  0  0  0  0  0  0  0  0  0  0  0
   17.9886   -0.6695   -7.7785 H   0  0  0  0  0  0  0  0  0  0  0  0
   17.2961   -2.0200   -8.7080 H   0  0  0  0  0  0  0  0  0  0  0  0
   16.3525   -0.5308   -8.4649 H   0  0  0  0  0  0  0  0  0  0  0  0
   15.9380   -5.0928   -7.0314 H   0  0  0  0  0  0  0  0  0  0  0  0
   14.7898   -5.7111   -5.8204 H   0  0  0  0  0  0  0  0  0  0  0  0
   14.1928   -5.0960   -7.3800 H   0  0  0  0  0  0  0  0  0  0  0  0
  1  2  1  0
  1 30  1  6
  1 31  1  0
  1 32  1  0
  2 22  1  0
  2  3  2  0
  3 20  1  0
  3  4  1  0
  4  5  1  0
  4 33  1  6
  4 34  1  0
  5  6  1  0
  5 35  1  1
  5 36  1  0
  6 37  1  1
  6 38  1  0
  6  7  1  0
  7  8  1  0
  7 58  1  1
  7 59  1  0
  8  9  1  0
  8 39  1  6
  8 60  1  0
  9 10  1  0
  9 40  1  0
  9 41  1  1
 10 11  1  0
 10 42  1  0
 11 16  1  0
 11 12  2  0
 12 13  1  0
 12 43  1  0
 13 14  2  0
 13 20  1  0
 14 15  1  0
 14 44  1  0
 15 16  2  0
 15 45  1  0
 16 17  1  0
 17 18  1  0
 17 19  2  0
 18 46  1  0
 18 47  1  0
 20 21  1  0
 21 29  1  0
 21 22  2  0
 22 23  1  0
 23 24  2  0
 23 25  1  0
 26 25  1  1
 25 48  1  1
 25 49  1  0
 26 27  1  0
 26 28  1  0
 26 29  1  0
 27 50  1  6
 27 51  1  0
 27 52  1  0
 28 53  1  6
 28 54  1  0
 28 55  1  0
 29 56  1  1
 29 57  1  0
 40 61  1  1
 40 62  1  0
 40 63  1  0
 59 64  1  6
 59 65  1  0
 59 66  1  0
M  CHG  1   7   1
M  END
