spiro3
     RDKit          3D

 40 43  0  0  1  0  0  0  0  0999 V2000
   27.1630   15.5840    9.8740 C   0  0  0  0  0  0  0  0  0  0  0  0
   27.8810   14.3710    9.6970 C   0  0  0  0  0  0  0  0  0  0  0  0
   27.2430   13.2000    9.2280 C   0  0  0  0  0  0  0  0  0  0  0  0
   25.8710   13.2570    8.9350 C   0  0  0  0  0  0  0  0  0  0  0  0
   25.0920   12.2370    8.4700 O   0  0  0  0  0  0  0  0  0  0  0  0
   23.7380   12.7170    8.3950 C   0  0  1  0  0  0  0  0  0  0  0  0
   23.7580   14.2550    8.6370 C   0  0  2  0  0  0  0  0  0  0  0  0
   22.7780   14.6800    9.6400 N   0  0  0  0  0  0  0  0  0  0  0  0
   22.1780   15.8170    9.2800 C   0  0  0  0  0  0  0  0  0  0  0  0
   21.2710   16.4270   10.0510 N   0  0  0  0  0  0  0  0  0  0  0  0
   22.6350   16.3300    7.9580 C   0  0  1  0  0  0  0  0  0  0  0  0
   23.3770   15.1030    7.3850 C   0  0  1  0  0  0  0  0  0  0  0  0
   24.4810   15.4540    6.3530 C   0  0  1  0  0  0  0  0  0  0  0  0
   25.3870   16.3180    6.8150 F   0  0  0  0  0  0  0  0  0  0  0  0
   25.1010   14.3470    5.9490 F   0  0  0  0  0  0  0  0  0  0  0  0
   23.9110   16.0120    5.2880 F   0  0  0  0  0  0  0  0  0  0  0  0
   25.1680   14.4360    9.0930 C   0  0  0  0  0  0  0  0  0  0  0  0
   25.7780   15.5990    9.5840 C   0  0  0  0  0  0  0  0  0  0  0  0
   28.9370   14.3280    9.9120 H   0  0  0  0  0  0  0  0  0  0  0  0
   27.7970   12.2830    9.0920 H   0  0  0  0  0  0  0  0  0  0  0  0
   23.3160   12.4530    7.4260 H   0  0  0  0  0  0  0  0  0  0  0  0
   23.1490   12.2010    9.1560 H   0  0  0  0  0  0  0  0  0  0  0  0
   20.8990   17.3600    9.8550 H   0  0  0  0  0  0  0  0  0  0  0  0
   21.1630   16.1080   11.0210 H   0  0  0  0  0  0  0  0  0  0  0  0
   21.8010   16.6520    7.3320 H   0  0  0  0  0  0  0  0  0  0  0  0
   23.3050   17.1750    8.1170 H   0  0  0  0  0  0  0  0  0  0  0  0
   22.6240   14.5280    6.8440 H   0  0  0  0  0  0  0  0  0  0  0  0
   25.1950   16.5020    9.6750 H   0  0  0  0  0  0  0  0  0  0  0  0
   29.0500   19.2590   10.8420 C   0  0  0  0  0  0  0  0  0  0  0  0
   29.7340   18.3480   10.1200 C   0  0  0  0  0  0  0  0  0  0  0  0
   29.1280   17.1720    9.8480 C   0  0  0  0  0  0  0  0  0  0  0  0
   27.8280   16.8320   10.2890 C   0  0  0  0  0  0  0  0  0  0  0  0
   27.1600   17.7800   11.0960 C   0  0  0  0  0  0  0  0  0  0  0  0
   27.7650   19.0190   11.3640 C   0  0  0  0  0  0  0  0  0  0  0  0
   29.5560   20.1950   11.0290 H   0  0  0  0  0  0  0  0  0  0  0  0
   29.6930   16.4930    9.2260 H   0  0  0  0  0  0  0  0  0  0  0  0
   26.1700   17.5730   11.4770 H   0  0  0  0  0  0  0  0  0  0  0  0
   26.9400   20.2170   12.3010 Cl  0  0  0  0  0  0  0  0  0  0  0  0
   22.6450   14.2280   10.5560 H   0  0  0  0  0  0  0  0  0  0  0  0
   31.3370   18.7030    9.5750 Cl  0  0  0  0  0  0  0  0  0  0  0  0
  1  2  2  0
  1 18  1  0
  1 32  1  0
  2  3  1  0
  2 19  1  0
  3  4  2  0
  3 20  1  0
  4  5  1  0
  4 17  1  0
  5  6  1  0
  6  7  1  0
  6 21  1  6
  6 22  1  0
  7  8  1  1
  7 12  1  0
  7 17  1  0
  8  9  2  0
  8 39  1  0
  9 10  1  0
  9 11  1  0
 10 23  1  0
 10 24  1  0
 11 12  1  0
 11 25  1  6
 11 26  1  0
 12 13  1  0
 12 27  1  6
 13 14  1  1
 13 15  1  0
 13 16  1  0
 17 18  2  0
 18 28  1  0
 29 30  1  0
 29 34  2  0
 29 35  1  0
 30 31  2  0
 30 40  1  0
 31 32  1  0
 31 36  1  0
 32 33  2  0
 33 34  1  0
 33 37  1  0
 34 38  1  0
M  CHG  1   8   1
M  END
