spiro16
     RDKit          3D

 44 47  0  0  1  0  0  0  0  0999 V2000
   27.0640   15.5080    9.7380 C   0  0  0  0  0  0  0  0  0  0  0  0
   27.7880   14.3040    9.5220 C   0  0  0  0  0  0  0  0  0  0  0  0
   27.1440   13.1370    9.0510 C   0  0  0  0  0  0  0  0  0  0  0  0
   25.7590   13.1840    8.8300 C   0  0  0  0  0  0  0  0  0  0  0  0
   24.9840   12.1640    8.3560 O   0  0  0  0  0  0  0  0  0  0  0  0
   23.6250   12.6320    8.3080 C   0  0  1  0  0  0  0  0  0  0  0  0
   23.6270   14.1580    8.6240 C   0  0  2  0  0  0  0  0  0  0  0  0
   22.6360   14.5170    9.6390 N   0  0  0  0  0  0  0  0  0  0  0  0
   21.9880   15.6330    9.3090 C   0  0  0  0  0  0  0  0  0  0  0  0
   20.9990   16.1340   10.0550 N   0  0  0  0  0  0  0  0  0  0  0  0
   22.4720   16.2400    8.0300 C   0  0  1  0  0  0  0  0  0  0  0  0
   23.2130   15.0430    7.4090 C   0  0  1  0  0  0  0  0  0  0  0  0
   24.2990   15.4050    6.3680 C   0  0  1  0  0  0  0  0  0  0  0  0
   25.2450   16.2250    6.8270 F   0  0  0  0  0  0  0  0  0  0  0  0
   24.8620   14.2880    5.9170 F   0  0  0  0  0  0  0  0  0  0  0  0
   23.7170   16.0200    5.3460 F   0  0  0  0  0  0  0  0  0  0  0  0
   25.0450   14.3470    9.0600 C   0  0  0  0  0  0  0  0  0  0  0  0
   25.6620   15.5120    9.5480 C   0  0  0  0  0  0  0  0  0  0  0  0
   28.8590   14.2810    9.6660 H   0  0  0  0  0  0  0  0  0  0  0  0
   27.7070   12.2330    8.8580 H   0  0  0  0  0  0  0  0  0  0  0  0
   23.2170   12.4180    7.3180 H   0  0  0  0  0  0  0  0  0  0  0  0
   23.0360   12.0720    9.0390 H   0  0  0  0  0  0  0  0  0  0  0  0
   20.5520   17.0230    9.8380 H   0  0  0  0  0  0  0  0  0  0  0  0
   20.9450   15.8350   11.0350 H   0  0  0  0  0  0  0  0  0  0  0  0
   21.6710   16.6440    7.4160 H   0  0  0  0  0  0  0  0  0  0  0  0
   23.1600   17.0480    8.2720 H   0  0  0  0  0  0  0  0  0  0  0  0
   22.4310   14.4990    6.8960 H   0  0  0  0  0  0  0  0  0  0  0  0
   25.0880   16.4190    9.6810 H   0  0  0  0  0  0  0  0  0  0  0  0
   28.9400   19.3370   10.2900 C   0  0  0  0  0  0  0  0  0  0  0  0
   29.4370   18.4320    9.3280 C   0  0  0  0  0  0  0  0  0  0  0  0
   28.8590   17.1510    9.2180 C   0  0  0  0  0  0  0  0  0  0  0  0
   27.7600   16.7750   10.0180 C   0  0  0  0  0  0  0  0  0  0  0  0
   27.2810   17.6850   10.9840 C   0  0  0  0  0  0  0  0  0  0  0  0
   27.8580   18.9650   11.1130 C   0  0  0  0  0  0  0  0  0  0  0  0
   29.3620   20.3300   10.3650 H   0  0  0  0  0  0  0  0  0  0  0  0
   29.2160   16.4660    8.4630 H   0  0  0  0  0  0  0  0  0  0  0  0
   26.4290   17.4180   11.5930 H   0  0  0  0  0  0  0  0  0  0  0  0
   30.5280   18.8630    8.3620 C   0  0  1  0  0  0  0  0  0  0  0  0
   30.5820   18.0500    7.3030 F   0  0  0  0  0  0  0  0  0  0  0  0
   30.2820   20.1050    7.9410 F   0  0  0  0  0  0  0  0  0  0  0  0
   31.7120   18.8440    8.9590 F   0  0  0  0  0  0  0  0  0  0  0  0
   27.2820   19.9200   12.0430 C   0  0  0  0  0  0  0  0  0  0  0  0
   26.8110   20.6760   12.7820 N   0  0  0  0  0  0  0  0  0  0  0  0
   22.5240   14.0460   10.5520 H   0  0  0  0  0  0  0  0  0  0  0  0
  1  2  2  0
  1 18  1  0
  1 32  1  0
  2  3  1  0
  2 19  1  0
  3  4  2  0
  3 20  1  0
  4  5  1  0
  4 17  1  0
  5  6  1  0
  6  7  1  0
  6 21  1  6
  6 22  1  0
  7  8  1  1
  7 12  1  0
  7 17  1  0
  8  9  2  0
  8 44  1  0
  9 10  1  0
  9 11  1  0
 10 23  1  0
 10 24  1  0
 11 12  1  0
 11 25  1  6
 11 26  1  0
 12 13  1  0
 12 27  1  6
 13 14  1  1
 13 15  1  0
 13 16  1  0
 17 18  2  0
 18 28  1  0
 29 30  2  0
 29 34  1  0
 29 35  1  0
 30 31  1  0
 30 38  1  0
 31 32  2  0
 31 36  1  0
 32 33  1  0
 33 34  2  0
 33 37  1  0
 34 42  1  0
 38 39  1  6
 38 40  1  0
 38 41  1  0
 42 43  3  0
M  CHG  1   8   1
M  END
