18624-1
     RDKit          3D

 38 39  0  0  1  0  0  0  0  0999 V2000
   25.4048    5.0101   30.1695 C   0  0  0  0  0  0  0  0  0  0  0  0
   24.0566    5.0925   29.8311 C   0  0  0  0  0  0  0  0  0  0  0  0
   23.1086    4.3693   30.5624 C   0  0  0  0  0  0  0  0  0  0  0  0
   23.5127    3.5680   31.6340 C   0  0  0  0  0  0  0  0  0  0  0  0
   24.8614    3.4832   31.9689 C   0  0  0  0  0  0  0  0  0  0  0  0
   25.8011    4.2049   31.2354 C   0  0  0  0  0  0  0  0  0  0  0  0
   21.6278    4.4703   30.2064 C   0  0  2  0  0  0  0  0  0  0  0  0
   20.8723    5.4908   31.0652 C   0  0  0  0  0  0  0  0  0  0  0  0
   21.3092    6.7579   30.9987 N   0  0  0  0  0  0  0  0  0  0  0  0
   20.8241    7.9038   31.5965 C   0  0  0  0  0  0  0  0  0  0  0  0
   19.9198    5.1107   31.7406 O   0  0  0  0  0  0  0  0  0  0  0  0
   21.6108    8.9613   31.3319 N   0  0  0  0  0  0  0  0  0  0  0  0
   21.2702   10.1769   31.8423 C   0  0  0  0  0  0  0  0  0  0  0  0
   20.1288   10.3641   32.6290 C   0  0  0  0  0  0  0  0  0  0  0  0
   19.3208    9.2461   32.8845 C   0  0  0  0  0  0  0  0  0  0  0  0
   19.6671    8.0062   32.3665 C   0  0  0  0  0  0  0  0  0  0  0  0
   18.1564    9.3046   33.6496 N   0  0  0  0  0  0  0  0  0  0  0  0
   19.8102   11.6856   33.1563 C   0  0  0  0  0  0  0  0  0  0  0  0
   22.1041   11.2473   31.5637 O   0  0  0  0  0  0  0  0  0  0  0  0
   23.2509   11.0872   30.7291 C   0  0  2  0  0  0  0  0  0  0  0  0
   22.8485   11.1272   29.2489 C   0  0  1  0  0  0  0  0  0  0  0  0
   19.5503   12.7307   33.5795 N   0  0  0  0  0  0  0  0  0  0  0  0
   26.1412    5.5671   29.6082 H   0  0  0  0  0  0  0  0  0  0  0  0
   22.7828    3.0136   32.2079 H   0  0  0  0  0  0  0  0  0  0  0  0
   19.0422    7.1489   32.5561 H   0  0  0  0  0  0  0  0  0  0  0  0
   21.1581    3.4937   30.3325 H   0  0  0  0  0  0  0  0  0  0  0  0
   21.4997    4.7358   29.1570 H   0  0  0  0  0  0  0  0  0  0  0  0
   22.1337    6.9495   30.4617 H   0  0  0  0  0  0  0  0  0  0  0  0
   17.7302    8.4373   33.9368 H   0  0  0  0  0  0  0  0  0  0  0  0
   17.9457   10.1663   34.1337 H   0  0  0  0  0  0  0  0  0  0  0  0
   23.8202   10.1869   30.9703 H   0  0  0  0  0  0  0  0  0  0  0  0
   23.9179   11.9240   30.9377 H   0  0  0  0  0  0  0  0  0  0  0  0
   23.7251   11.0754   28.6039 H   0  0  0  0  0  0  0  0  0  0  0  0
   22.1975   10.2908   28.9951 H   0  0  0  0  0  0  0  0  0  0  0  0
   22.3127   12.0482   29.0175 H   0  0  0  0  0  0  0  0  0  0  0  0
   26.8478    4.1398   31.4970 H   0  0  0  0  0  0  0  0  0  0  0  0
   25.1765    2.8628   32.7955 H   0  0  0  0  0  0  0  0  0  0  0  0
   23.7561    5.7153   29.0009 H   0  0  0  0  0  0  0  0  0  0  0  0
  1  2  1  0
  1  6  2  0
  1 23  1  0
  2  3  2  0
  2 38  1  0
  3  4  1  0
  3  7  1  0
  4  5  2  0
  4 24  1  0
  5  6  1  0
  5 37  1  0
  6 36  1  0
  7  8  1  0
  7 26  1  6
  7 27  1  0
  8  9  1  0
  8 11  2  0
  9 10  1  0
  9 28  1  0
 10 12  1  0
 10 16  2  0
 12 13  2  0
 13 14  1  0
 13 19  1  0
 14 15  2  0
 14 18  1  0
 15 16  1  0
 15 17  1  0
 16 25  1  0
 17 29  1  0
 17 30  1  0
 18 22  3  0
 19 20  1  0
 20 21  1  0
 20 31  1  1
 20 32  1  0
 21 33  1  6
 21 34  1  0
 21 35  1  0
M  END
