17124-1 flip
     RDKit          3D

 46 47  0  0  1  0  0  0  0  0999 V2000
   24.9007    3.1109   31.7072 C   0  0  0  0  0  0  0  0  0  0  0  0
   23.5459    3.2020   31.3622 C   0  0  0  0  0  0  0  0  0  0  0  0
   23.1030    4.3278   30.6476 C   0  0  0  0  0  0  0  0  0  0  0  0
   24.0142    5.3214   30.2720 C   0  0  0  0  0  0  0  0  0  0  0  0
   25.3715    5.2273   30.6159 C   0  0  0  0  0  0  0  0  0  0  0  0
   25.8004    4.1103   31.3416 C   0  0  0  0  0  0  0  0  0  0  0  0
   21.6326    4.4722   30.2434 C   0  0  2  0  0  0  0  0  0  0  0  0
   20.8801    5.4847   31.1125 C   0  0  0  0  0  0  0  0  0  0  0  0
   21.2551    6.7628   30.9649 N   0  0  0  0  0  0  0  0  0  0  0  0
   20.7888    7.9110   31.5716 C   0  0  0  0  0  0  0  0  0  0  0  0
   20.0005    5.0885   31.8725 O   0  0  0  0  0  0  0  0  0  0  0  0
   21.5784    8.9667   31.3060 N   0  0  0  0  0  0  0  0  0  0  0  0
   21.2494   10.1792   31.8308 C   0  0  0  0  0  0  0  0  0  0  0  0
   20.1190   10.3652   32.6336 C   0  0  0  0  0  0  0  0  0  0  0  0
   19.3056    9.2504   32.8858 C   0  0  0  0  0  0  0  0  0  0  0  0
   19.6401    8.0130   32.3531 C   0  0  0  0  0  0  0  0  0  0  0  0
   26.3199    6.1750   30.2794 O   0  0  0  0  0  0  0  0  0  0  0  0
   25.9393    7.3215   29.5274 C   0  0  1  0  0  0  0  0  0  0  0  0
   22.6088    2.2346   31.6807 O   0  0  0  0  0  0  0  0  0  0  0  0
   23.0484    0.9692   32.1666 C   0  0  2  0  0  0  0  0  0  0  0  0
   18.1470    9.3099   33.6595 N   0  0  0  0  0  0  0  0  0  0  0  0
   19.8166   11.6837   33.1781 C   0  0  0  0  0  0  0  0  0  0  0  0
   22.0835   11.2482   31.5469 O   0  0  0  0  0  0  0  0  0  0  0  0
   23.1991   11.0961   30.6700 C   0  0  2  0  0  0  0  0  0  0  0  0
   22.7431   11.1340   29.2044 C   0  0  1  0  0  0  0  0  0  0  0  0
   27.6290    3.9191   31.8466 Br  0  0  0  0  0  0  0  0  0  0  0  0
   19.5700   12.7263   33.6147 N   0  0  0  0  0  0  0  0  0  0  0  0
   25.2815    2.2696   32.2625 H   0  0  0  0  0  0  0  0  0  0  0  0
   23.6541    6.1662   29.7061 H   0  0  0  0  0  0  0  0  0  0  0  0
   19.0134    7.1560   32.5372 H   0  0  0  0  0  0  0  0  0  0  0  0
   21.1188    3.5122   30.3005 H   0  0  0  0  0  0  0  0  0  0  0  0
   21.5647    4.7882   29.2020 H   0  0  0  0  0  0  0  0  0  0  0  0
   22.0394    6.9392   30.3563 H   0  0  0  0  0  0  0  0  0  0  0  0
   25.5374    7.0462   28.5511 H   0  0  0  0  0  0  0  0  0  0  0  0
   25.2065    7.9270   30.0628 H   0  0  0  0  0  0  0  0  0  0  0  0
   26.8174    7.9446   29.3566 H   0  0  0  0  0  0  0  0  0  0  0  0
   23.7492    0.4957   31.4766 H   0  0  0  0  0  0  0  0  0  0  0  0
   22.1896    0.3050   32.2653 H   0  0  0  0  0  0  0  0  0  0  0  0
   23.5122    1.0544   33.1504 H   0  0  0  0  0  0  0  0  0  0  0  0
   17.7127    8.4442   33.9395 H   0  0  0  0  0  0  0  0  0  0  0  0
   17.9421   10.1703   34.1488 H   0  0  0  0  0  0  0  0  0  0  0  0
   23.7796   10.1983   30.8920 H   0  0  0  0  0  0  0  0  0  0  0  0
   23.8701   11.9355   30.8552 H   0  0  0  0  0  0  0  0  0  0  0  0
   23.5940   11.0824   28.5261 H   0  0  0  0  0  0  0  0  0  0  0  0
   22.0815   10.2991   28.9731 H   0  0  0  0  0  0  0  0  0  0  0  0
   22.1992   12.0549   28.9924 H   0  0  0  0  0  0  0  0  0  0  0  0
  1  2  1  0
  1  6  2  0
  1 28  1  0
  2  3  2  0
  2 19  1  0
  3  4  1  0
  3  7  1  0
  4  5  2  0
  4 29  1  0
  5  6  1  0
  5 17  1  0
  6 26  1  0
  7  8  1  0
  7 31  1  6
  7 32  1  0
  8  9  1  0
  8 11  2  0
  9 10  1  0
  9 33  1  0
 10 12  1  0
 10 16  2  0
 12 13  2  0
 13 14  1  0
 13 23  1  0
 14 15  2  0
 14 22  1  0
 15 16  1  0
 15 21  1  0
 16 30  1  0
 17 18  1  0
 18 34  1  6
 18 35  1  0
 18 36  1  0
 19 20  1  0
 20 37  1  6
 20 38  1  0
 20 39  1  0
 21 40  1  0
 21 41  1  0
 22 27  3  0
 23 24  1  0
 24 25  1  0
 24 42  1  1
 24 43  1  0
 25 44  1  6
 25 45  1  0
 25 46  1  0
M  END
