18632-1 flip
     RDKit          3D

 42 43  0  0  1  0  0  0  0  0999 V2000
   25.1319    3.7876   31.5701 C   0  0  0  0  0  0  0  0  0  0  0  0
   23.7456    3.7725   31.4271 C   0  0  0  0  0  0  0  0  0  0  0  0
   23.1381    4.4932   30.3939 C   0  0  0  0  0  0  0  0  0  0  0  0
   23.9328    5.2259   29.5055 C   0  0  0  0  0  0  0  0  0  0  0  0
   25.3294    5.2529   29.6470 C   0  0  0  0  0  0  0  0  0  0  0  0
   25.9140    4.5264   30.6832 C   0  0  0  0  0  0  0  0  0  0  0  0
   21.6222    4.4611   30.2211 C   0  0  2  0  0  0  0  0  0  0  0  0
   20.8913    5.4810   31.1021 C   0  0  0  0  0  0  0  0  0  0  0  0
   21.2908    6.7571   30.9902 N   0  0  0  0  0  0  0  0  0  0  0  0
   20.8082    7.9011   31.5932 C   0  0  0  0  0  0  0  0  0  0  0  0
   19.9890    5.0907   31.8377 O   0  0  0  0  0  0  0  0  0  0  0  0
   21.5864    8.9609   31.3168 N   0  0  0  0  0  0  0  0  0  0  0  0
   21.2506   10.1749   31.8337 C   0  0  0  0  0  0  0  0  0  0  0  0
   20.1196   10.3584   32.6362 C   0  0  0  0  0  0  0  0  0  0  0  0
   19.3160    9.2387   32.8987 C   0  0  0  0  0  0  0  0  0  0  0  0
   19.6597    7.9994   32.3758 C   0  0  0  0  0  0  0  0  0  0  0  0
   26.1891    5.9542   28.8275 O   0  0  0  0  0  0  0  0  0  0  0  0
   25.6565    6.7299   27.7597 C   0  0  1  0  0  0  0  0  0  0  0  0
   18.1587    9.2949   33.6747 N   0  0  0  0  0  0  0  0  0  0  0  0
   19.8067   11.6783   33.1713 C   0  0  0  0  0  0  0  0  0  0  0  0
   22.0783   11.2469   31.5433 O   0  0  0  0  0  0  0  0  0  0  0  0
   23.2021   11.0921   30.6764 C   0  0  2  0  0  0  0  0  0  0  0  0
   22.7572   11.1370   29.2079 C   0  0  1  0  0  0  0  0  0  0  0  0
   19.5512   12.7218   33.6010 N   0  0  0  0  0  0  0  0  0  0  0  0
   25.6030    3.2309   32.3670 H   0  0  0  0  0  0  0  0  0  0  0  0
   23.4531    5.7697   28.7072 H   0  0  0  0  0  0  0  0  0  0  0  0
   19.0397    7.1398   32.5700 H   0  0  0  0  0  0  0  0  0  0  0  0
   21.2510    3.4639   30.4609 H   0  0  0  0  0  0  0  0  0  0  0  0
   21.3498    4.6459   29.1821 H   0  0  0  0  0  0  0  0  0  0  0  0
   22.0855    6.9585   30.4126 H   0  0  0  0  0  0  0  0  0  0  0  0
   25.1270    6.1068   27.0373 H   0  0  0  0  0  0  0  0  0  0  0  0
   24.9853    7.5090   28.1248 H   0  0  0  0  0  0  0  0  0  0  0  0
   26.4736    7.2224   27.2322 H   0  0  0  0  0  0  0  0  0  0  0  0
   17.7301    8.4284   33.9605 H   0  0  0  0  0  0  0  0  0  0  0  0
   17.9471   10.1578   34.1567 H   0  0  0  0  0  0  0  0  0  0  0  0
   23.7795   10.1917   30.8982 H   0  0  0  0  0  0  0  0  0  0  0  0
   23.8738   11.9288   30.8701 H   0  0  0  0  0  0  0  0  0  0  0  0
   22.0947   10.3050   28.9698 H   0  0  0  0  0  0  0  0  0  0  0  0
   22.2197   12.0610   28.9935 H   0  0  0  0  0  0  0  0  0  0  0  0
   23.6140   11.0821   28.5370 H   0  0  0  0  0  0  0  0  0  0  0  0
   26.9884    4.5420   30.7939 H   0  0  0  0  0  0  0  0  0  0  0  0
   23.1503    3.2003   32.1241 H   0  0  0  0  0  0  0  0  0  0  0  0
  1  2  1  0
  1  6  2  0
  1 25  1  0
  2  3  2  0
  2 42  1  0
  3  4  1  0
  3  7  1  0
  4  5  2  0
  4 26  1  0
  5  6  1  0
  5 17  1  0
  6 41  1  0
  7  8  1  0
  7 28  1  1
  7 29  1  0
  8  9  1  0
  8 11  2  0
  9 10  1  0
  9 30  1  0
 10 12  1  0
 10 16  2  0
 12 13  2  0
 13 14  1  0
 13 21  1  0
 14 15  2  0
 14 20  1  0
 15 16  1  0
 15 19  1  0
 16 27  1  0
 17 18  1  0
 18 31  1  6
 18 32  1  0
 18 33  1  0
 19 34  1  0
 19 35  1  0
 20 24  3  0
 21 22  1  0
 22 23  1  0
 22 36  1  1
 22 37  1  0
 23 38  1  6
 23 39  1  0
 23 40  1  0
M  END
