17124-1
     RDKit          3D

 46 47  0  0  1  0  0  0  0  0999 V2000
   25.3889    5.1089   30.6451 C   0  0  0  0  0  0  0  0  0  0  0  0
   24.0560    5.2801   30.2487 C   0  0  0  0  0  0  0  0  0  0  0  0
   23.1030    4.3278   30.6476 C   0  0  0  0  0  0  0  0  0  0  0  0
   23.4872    3.2455   31.4473 C   0  0  0  0  0  0  0  0  0  0  0  0
   24.8222    3.0770   31.8459 C   0  0  0  0  0  0  0  0  0  0  0  0
   25.7673    4.0217   31.4304 C   0  0  0  0  0  0  0  0  0  0  0  0
   21.6326    4.4722   30.2434 C   0  0  2  0  0  0  0  0  0  0  0  0
   20.8801    5.4847   31.1125 C   0  0  0  0  0  0  0  0  0  0  0  0
   21.2551    6.7628   30.9649 N   0  0  0  0  0  0  0  0  0  0  0  0
   20.7888    7.9110   31.5716 C   0  0  0  0  0  0  0  0  0  0  0  0
   20.0005    5.0885   31.8725 O   0  0  0  0  0  0  0  0  0  0  0  0
   21.5784    8.9667   31.3060 N   0  0  0  0  0  0  0  0  0  0  0  0
   21.2494   10.1792   31.8308 C   0  0  0  0  0  0  0  0  0  0  0  0
   20.1190   10.3652   32.6336 C   0  0  0  0  0  0  0  0  0  0  0  0
   19.3056    9.2504   32.8858 C   0  0  0  0  0  0  0  0  0  0  0  0
   19.6401    8.0130   32.3531 C   0  0  0  0  0  0  0  0  0  0  0  0
   25.2665    2.0292   32.6305 O   0  0  0  0  0  0  0  0  0  0  0  0
   24.3431    1.0505   33.0937 C   0  0  1  0  0  0  0  0  0  0  0  0
   23.6162    6.3473   29.4851 O   0  0  0  0  0  0  0  0  0  0  0  0
   24.4797    7.4620   29.2795 C   0  0  2  0  0  0  0  0  0  0  0  0
   18.1470    9.3099   33.6595 N   0  0  0  0  0  0  0  0  0  0  0  0
   19.8166   11.6837   33.1781 C   0  0  0  0  0  0  0  0  0  0  0  0
   22.0835   11.2482   31.5469 O   0  0  0  0  0  0  0  0  0  0  0  0
   23.1991   11.0961   30.6700 C   0  0  2  0  0  0  0  0  0  0  0  0
   22.7431   11.1340   29.2044 C   0  0  1  0  0  0  0  0  0  0  0  0
   27.5994    3.8532   31.9309 Br  0  0  0  0  0  0  0  0  0  0  0  0
   19.5700   12.7263   33.6147 N   0  0  0  0  0  0  0  0  0  0  0  0
   26.1537    5.8100   30.3543 H   0  0  0  0  0  0  0  0  0  0  0  0
   22.7339    2.5388   31.7579 H   0  0  0  0  0  0  0  0  0  0  0  0
   19.0134    7.1560   32.5372 H   0  0  0  0  0  0  0  0  0  0  0  0
   21.1188    3.5122   30.3005 H   0  0  0  0  0  0  0  0  0  0  0  0
   21.5647    4.7882   29.2020 H   0  0  0  0  0  0  0  0  0  0  0  0
   22.0394    6.9392   30.3563 H   0  0  0  0  0  0  0  0  0  0  0  0
   23.5703    1.4938   33.7235 H   0  0  0  0  0  0  0  0  0  0  0  0
   23.8735    0.5184   32.2650 H   0  0  0  0  0  0  0  0  0  0  0  0
   24.8750    0.3143   33.6965 H   0  0  0  0  0  0  0  0  0  0  0  0
   24.8189    7.8870   30.2260 H   0  0  0  0  0  0  0  0  0  0  0  0
   23.9361    8.2434   28.7480 H   0  0  0  0  0  0  0  0  0  0  0  0
   25.3460    7.1941   28.6729 H   0  0  0  0  0  0  0  0  0  0  0  0
   17.7127    8.4442   33.9395 H   0  0  0  0  0  0  0  0  0  0  0  0
   17.9421   10.1703   34.1488 H   0  0  0  0  0  0  0  0  0  0  0  0
   23.7796   10.1983   30.8920 H   0  0  0  0  0  0  0  0  0  0  0  0
   23.8701   11.9355   30.8552 H   0  0  0  0  0  0  0  0  0  0  0  0
   23.5940   11.0824   28.5261 H   0  0  0  0  0  0  0  0  0  0  0  0
   22.0815   10.2991   28.9731 H   0  0  0  0  0  0  0  0  0  0  0  0
   22.1992   12.0549   28.9924 H   0  0  0  0  0  0  0  0  0  0  0  0
  1  2  1  0
  1  6  2  0
  1 28  1  0
  2  3  2  0
  2 19  1  0
  3  4  1  0
  3  7  1  0
  4  5  2  0
  4 29  1  0
  5  6  1  0
  5 17  1  0
  6 26  1  0
  7  8  1  0
  7 31  1  6
  7 32  1  0
  8  9  1  0
  8 11  2  0
  9 10  1  0
  9 33  1  0
 10 12  1  0
 10 16  2  0
 12 13  2  0
 13 14  1  0
 13 23  1  0
 14 15  2  0
 14 22  1  0
 15 16  1  0
 15 21  1  0
 16 30  1  0
 17 18  1  0
 18 34  1  1
 18 35  1  0
 18 36  1  0
 19 20  1  0
 20 37  1  1
 20 38  1  0
 20 39  1  0
 21 40  1  0
 21 41  1  0
 22 27  3  0
 23 24  1  0
 24 25  1  0
 24 42  1  1
 24 43  1  0
 25 44  1  6
 25 45  1  0
 25 46  1  0
M  END
