18627-1
     RDKit          3D

 38 39  0  0  1  0  0  0  0  0999 V2000
   25.4116    4.9365   30.2940 C   0  0  0  0  0  0  0  0  0  0  0  0
   24.0744    5.0545   29.9226 C   0  0  0  0  0  0  0  0  0  0  0  0
   23.0947    4.3261   30.6061 C   0  0  0  0  0  0  0  0  0  0  0  0
   23.4575    3.4843   31.6620 C   0  0  0  0  0  0  0  0  0  0  0  0
   24.7965    3.3657   32.0274 C   0  0  0  0  0  0  0  0  0  0  0  0
   25.7668    4.0922   31.3424 C   0  0  0  0  0  0  0  0  0  0  0  0
   21.6253    4.4677   30.2181 C   0  0  2  0  0  0  0  0  0  0  0  0
   20.8817    5.4845   31.0901 C   0  0  0  0  0  0  0  0  0  0  0  0
   21.2677    6.7627   30.9610 N   0  0  0  0  0  0  0  0  0  0  0  0
   20.7906    7.9044   31.5720 C   0  0  0  0  0  0  0  0  0  0  0  0
   19.9922    5.0904   31.8389 O   0  0  0  0  0  0  0  0  0  0  0  0
   21.5713    8.9631   31.2976 N   0  0  0  0  0  0  0  0  0  0  0  0
   21.2413   10.1749   31.8245 C   0  0  0  0  0  0  0  0  0  0  0  0
   20.1147   10.3568   32.6335 C   0  0  0  0  0  0  0  0  0  0  0  0
   19.3096    9.2376   32.8940 C   0  0  0  0  0  0  0  0  0  0  0  0
   19.6474    8.0006   32.3624 C   0  0  0  0  0  0  0  0  0  0  0  0
   18.1571    9.2920   33.6772 N   0  0  0  0  0  0  0  0  0  0  0  0
   19.8074   11.6747   33.1768 C   0  0  0  0  0  0  0  0  0  0  0  0
   22.0717   11.2463   31.5392 O   0  0  0  0  0  0  0  0  0  0  0  0
   23.1955   11.0943   30.6723 C   0  0  2  0  0  0  0  0  0  0  0  0
   22.7521   11.1529   29.2039 C   0  0  1  0  0  0  0  0  0  0  0  0
   27.4233    3.9473   31.7965 Cl  0  0  0  0  0  0  0  0  0  0  0  0
   19.5565   12.7167   33.6125 N   0  0  0  0  0  0  0  0  0  0  0  0
   26.1771    5.4947   29.7756 H   0  0  0  0  0  0  0  0  0  0  0  0
   22.7048    2.9264   32.2021 H   0  0  0  0  0  0  0  0  0  0  0  0
   19.0265    7.1411   32.5550 H   0  0  0  0  0  0  0  0  0  0  0  0
   21.1278    3.5011   30.3102 H   0  0  0  0  0  0  0  0  0  0  0  0
   21.5263    4.7601   29.1726 H   0  0  0  0  0  0  0  0  0  0  0  0
   22.0461    6.9732   30.3664 H   0  0  0  0  0  0  0  0  0  0  0  0
   17.7349    8.4240   33.9679 H   0  0  0  0  0  0  0  0  0  0  0  0
   17.9535   10.1517   34.1683 H   0  0  0  0  0  0  0  0  0  0  0  0
   23.7696   10.1903   30.8874 H   0  0  0  0  0  0  0  0  0  0  0  0
   23.8698   11.9271   30.8734 H   0  0  0  0  0  0  0  0  0  0  0  0
   23.6093   11.1025   28.5332 H   0  0  0  0  0  0  0  0  0  0  0  0
   22.0877   10.3246   28.9581 H   0  0  0  0  0  0  0  0  0  0  0  0
   22.2168   12.0799   28.9975 H   0  0  0  0  0  0  0  0  0  0  0  0
   25.0870    2.7172   32.8404 H   0  0  0  0  0  0  0  0  0  0  0  0
   23.8091    5.7104   29.1063 H   0  0  0  0  0  0  0  0  0  0  0  0
  1  2  1  0
  1  6  2  0
  1 24  1  0
  2  3  2  0
  2 38  1  0
  3  4  1  0
  3  7  1  0
  4  5  2  0
  4 25  1  0
  5  6  1  0
  5 37  1  0
  6 22  1  0
  7  8  1  0
  7 27  1  6
  7 28  1  0
  8  9  1  0
  8 11  2  0
  9 10  1  0
  9 29  1  0
 10 12  1  0
 10 16  2  0
 12 13  2  0
 13 14  1  0
 13 19  1  0
 14 15  2  0
 14 18  1  0
 15 16  1  0
 15 17  1  0
 16 26  1  0
 17 30  1  0
 17 31  1  0
 18 23  3  0
 19 20  1  0
 20 21  1  0
 20 32  1  1
 20 33  1  0
 21 34  1  6
 21 35  1  0
 21 36  1  0
M  END
