18635-1 flip
     RDKit          3D

 44 45  0  0  1  0  0  0  0  0999 V2000
   24.5394    3.0270   32.2143 C   0  0  0  0  0  0  0  0  0  0  0  0
   23.2454    3.2559   31.7352 C   0  0  0  0  0  0  0  0  0  0  0  0
   23.0460    4.1977   30.7060 C   0  0  0  0  0  0  0  0  0  0  0  0
   24.1476    4.8845   30.1804 C   0  0  0  0  0  0  0  0  0  0  0  0
   25.4342    4.6562   30.6712 C   0  0  0  0  0  0  0  0  0  0  0  0
   25.6265    3.7217   31.6877 C   0  0  0  0  0  0  0  0  0  0  0  0
   21.6617    4.4972   30.1256 C   0  0  2  0  0  0  0  0  0  0  0  0
   20.8618    5.4928   30.9727 C   0  0  0  0  0  0  0  0  0  0  0  0
   21.3619    6.7348   31.0463 N   0  0  0  0  0  0  0  0  0  0  0  0
   20.8583    7.8705   31.6473 C   0  0  0  0  0  0  0  0  0  0  0  0
   19.8190    5.1224   31.5051 O   0  0  0  0  0  0  0  0  0  0  0  0
   21.6244    8.9417   31.3779 N   0  0  0  0  0  0  0  0  0  0  0  0
   21.2587   10.1528   31.8811 C   0  0  0  0  0  0  0  0  0  0  0  0
   20.1174   10.3200   32.6727 C   0  0  0  0  0  0  0  0  0  0  0  0
   19.3362    9.1857   32.9412 C   0  0  0  0  0  0  0  0  0  0  0  0
   19.7062    7.9510   32.4269 C   0  0  0  0  0  0  0  0  0  0  0  0
   18.1765    9.2238   33.7146 N   0  0  0  0  0  0  0  0  0  0  0  0
   19.7704   11.6393   33.1886 C   0  0  0  0  0  0  0  0  0  0  0  0
   22.0646   11.2399   31.5861 O   0  0  0  0  0  0  0  0  0  0  0  0
   23.1910   11.1055   30.7196 C   0  0  2  0  0  0  0  0  0  0  0  0
   22.7463   11.1278   29.2503 C   0  0  1  0  0  0  0  0  0  0  0  0
   19.4879   12.6822   33.6024 N   0  0  0  0  0  0  0  0  0  0  0  0
   24.7112    2.3112   33.0046 H   0  0  0  0  0  0  0  0  0  0  0  0
   23.9998    5.6024   29.3852 H   0  0  0  0  0  0  0  0  0  0  0  0
   19.1063    7.0796   32.6296 H   0  0  0  0  0  0  0  0  0  0  0  0
   21.0940    3.5680   30.0630 H   0  0  0  0  0  0  0  0  0  0  0  0
   21.7217    4.8700   29.1051 H   0  0  0  0  0  0  0  0  0  0  0  0
   22.2446    6.9158   30.6079 H   0  0  0  0  0  0  0  0  0  0  0  0
   17.7335    8.3549   33.9696 H   0  0  0  0  0  0  0  0  0  0  0  0
   17.9275   10.0889   34.1740 H   0  0  0  0  0  0  0  0  0  0  0  0
   23.7899   10.2215   30.9488 H   0  0  0  0  0  0  0  0  0  0  0  0
   23.8416   11.9602   30.9066 H   0  0  0  0  0  0  0  0  0  0  0  0
   23.6047   11.0959   28.5803 H   0  0  0  0  0  0  0  0  0  0  0  0
   22.1102   10.2740   29.0169 H   0  0  0  0  0  0  0  0  0  0  0  0
   22.1805   12.0333   29.0302 H   0  0  0  0  0  0  0  0  0  0  0  0
   26.6195    5.4139   30.1045 C   0  0  1  0  0  0  0  0  0  0  0  0
   27.2736    5.7602   30.9053 H   0  0  0  0  0  0  0  0  0  0  0  0
   27.1981    4.7681   29.4437 H   0  0  0  0  0  0  0  0  0  0  0  0
   26.3044    6.2884   29.5339 H   0  0  0  0  0  0  0  0  0  0  0  0
   22.0910    2.4865   32.3640 C   0  0  1  0  0  0  0  0  0  0  0  0
   22.4446    1.7158   33.0497 H   0  0  0  0  0  0  0  0  0  0  0  0
   21.4531    3.1634   32.9328 H   0  0  0  0  0  0  0  0  0  0  0  0
   21.4829    1.9883   31.6110 H   0  0  0  0  0  0  0  0  0  0  0  0
   26.6183    3.5344   32.0737 H   0  0  0  0  0  0  0  0  0  0  0  0
  1  2  1  0
  1  6  2  0
  1 23  1  0
  2  3  2  0
  2 40  1  0
  3  4  1  0
  3  7  1  0
  4  5  2  0
  4 24  1  0
  5  6  1  0
  5 36  1  0
  6 44  1  0
  7  8  1  0
  7 26  1  6
  7 27  1  0
  8  9  1  0
  8 11  2  0
  9 10  1  0
  9 28  1  0
 10 12  1  0
 10 16  2  0
 12 13  2  0
 13 14  1  0
 13 19  1  0
 14 15  2  0
 14 18  1  0
 15 16  1  0
 15 17  1  0
 16 25  1  0
 17 29  1  0
 17 30  1  0
 18 22  3  0
 19 20  1  0
 20 21  1  0
 20 31  1  1
 20 32  1  0
 21 33  1  6
 21 34  1  0
 21 35  1  0
 36 37  1  1
 36 38  1  0
 36 39  1  0
 40 41  1  1
 40 42  1  0
 40 43  1  0
M  END
