18634-1 flip
     RDKit          3D

 46 47  0  0  1  0  0  0  0  0999 V2000
   24.7108    3.1093   31.9004 C   0  0  0  0  0  0  0  0  0  0  0  0
   23.3748    3.2421   31.4918 C   0  0  0  0  0  0  0  0  0  0  0  0
   23.0258    4.3197   30.6594 C   0  0  0  0  0  0  0  0  0  0  0  0
   24.0082    5.2168   30.2241 C   0  0  0  0  0  0  0  0  0  0  0  0
   25.3442    5.0722   30.6253 C   0  0  0  0  0  0  0  0  0  0  0  0
   25.6778    4.0182   31.4715 C   0  0  0  0  0  0  0  0  0  0  0  0
   21.5839    4.5065   30.1824 C   0  0  2  0  0  0  0  0  0  0  0  0
   20.8188    5.5166   31.0398 C   0  0  0  0  0  0  0  0  0  0  0  0
   21.2316    6.7869   30.9362 N   0  0  0  0  0  0  0  0  0  0  0  0
   20.7724    7.9326   31.5528 C   0  0  0  0  0  0  0  0  0  0  0  0
   19.8977    5.1258   31.7520 O   0  0  0  0  0  0  0  0  0  0  0  0
   21.5728    8.9824   31.2997 N   0  0  0  0  0  0  0  0  0  0  0  0
   21.2557   10.1942   31.8321 C   0  0  0  0  0  0  0  0  0  0  0  0
   20.1270   10.3846   32.6360 C   0  0  0  0  0  0  0  0  0  0  0  0
   19.3020    9.2756   32.8778 C   0  0  0  0  0  0  0  0  0  0  0  0
   19.6236    8.0396   32.3338 C   0  0  0  0  0  0  0  0  0  0  0  0
   26.3758    5.9043   30.2416 O   0  0  0  0  0  0  0  0  0  0  0  0
   26.1147    6.9579   29.3201 C   0  0  2  0  0  0  0  0  0  0  0  0
   22.3700    2.3605   31.8515 O   0  0  0  0  0  0  0  0  0  0  0  0
   22.7135    1.1390   32.4986 C   0  0  2  0  0  0  0  0  0  0  0  0
   18.1437    9.3405   33.6519 N   0  0  0  0  0  0  0  0  0  0  0  0
   19.8381   11.7012   33.1919 C   0  0  0  0  0  0  0  0  0  0  0  0
   22.1003   11.2564   31.5522 O   0  0  0  0  0  0  0  0  0  0  0  0
   23.2102   11.0950   30.6687 C   0  0  2  0  0  0  0  0  0  0  0  0
   22.7478   11.1291   29.2047 C   0  0  2  0  0  0  0  0  0  0  0  0
   19.6020   12.7426   33.6380 N   0  0  0  0  0  0  0  0  0  0  0  0
   25.0214    2.3051   32.5481 H   0  0  0  0  0  0  0  0  0  0  0  0
   23.7207    6.0212   29.5657 H   0  0  0  0  0  0  0  0  0  0  0  0
   18.9880    7.1880   32.5111 H   0  0  0  0  0  0  0  0  0  0  0  0
   21.0493    3.5571   30.1943 H   0  0  0  0  0  0  0  0  0  0  0  0
   21.5753    4.8467   29.1468 H   0  0  0  0  0  0  0  0  0  0  0  0
   22.0435    6.9558   30.3624 H   0  0  0  0  0  0  0  0  0  0  0  0
   25.4106    7.6827   29.7320 H   0  0  0  0  0  0  0  0  0  0  0  0
   25.7276    6.5759   28.3736 H   0  0  0  0  0  0  0  0  0  0  0  0
   27.0425    7.4882   29.1040 H   0  0  0  0  0  0  0  0  0  0  0  0
   23.1386    1.3150   33.4878 H   0  0  0  0  0  0  0  0  0  0  0  0
   23.4161    0.5546   31.9019 H   0  0  0  0  0  0  0  0  0  0  0  0
   21.8155    0.5349   32.6296 H   0  0  0  0  0  0  0  0  0  0  0  0
   17.6945    8.4782   33.9179 H   0  0  0  0  0  0  0  0  0  0  0  0
   17.9420   10.2004   34.1433 H   0  0  0  0  0  0  0  0  0  0  0  0
   23.7858   10.1938   30.8907 H   0  0  0  0  0  0  0  0  0  0  0  0
   23.8875   11.9306   30.8469 H   0  0  0  0  0  0  0  0  0  0  0  0
   23.5951   11.0621   28.5232 H   0  0  0  0  0  0  0  0  0  0  0  0
   22.2135   12.0544   28.9886 H   0  0  0  0  0  0  0  0  0  0  0  0
   22.0764   10.3000   28.9810 H   0  0  0  0  0  0  0  0  0  0  0  0
   26.7041    3.9047   31.7873 H   0  0  0  0  0  0  0  0  0  0  0  0
  1  2  1  0
  1  6  2  0
  1 27  1  0
  2  3  2  0
  2 19  1  0
  3  4  1  0
  3  7  1  0
  4  5  2  0
  4 28  1  0
  5  6  1  0
  5 17  1  0
  6 46  1  0
  7  8  1  0
  7 30  1  6
  7 31  1  0
  8  9  1  0
  8 11  2  0
  9 10  1  0
  9 32  1  0
 10 12  1  0
 10 16  2  0
 12 13  2  0
 13 14  1  0
 13 23  1  0
 14 15  2  0
 14 22  1  0
 15 16  1  0
 15 21  1  0
 16 29  1  0
 17 18  1  0
 18 33  1  1
 18 34  1  0
 18 35  1  0
 19 20  1  0
 20 36  1  1
 20 37  1  0
 20 38  1  0
 21 39  1  0
 21 40  1  0
 22 26  3  0
 23 24  1  0
 24 25  1  0
 24 41  1  1
 24 42  1  0
 25 43  1  6
 25 44  1  0
 25 45  1  0
M  END
