18659-1 flip
     RDKit          3D

 50 51  0  0  1  0  0  0  0  0999 V2000
   24.8607    3.0976   31.7758 C   0  0  0  0  0  0  0  0  0  0  0  0
   23.5103    3.2035   31.4108 C   0  0  0  0  0  0  0  0  0  0  0  0
   23.0986    4.3141   30.6531 C   0  0  0  0  0  0  0  0  0  0  0  0
   24.0334    5.2778   30.2564 C   0  0  0  0  0  0  0  0  0  0  0  0
   25.3824    5.1651   30.6218 C   0  0  0  0  0  0  0  0  0  0  0  0
   25.7795    4.0708   31.3852 C   0  0  0  0  0  0  0  0  0  0  0  0
   21.6368    4.4729   30.2273 C   0  0  2  0  0  0  0  0  0  0  0  0
   20.8792    5.4839   31.0927 C   0  0  0  0  0  0  0  0  0  0  0  0
   21.2720    6.7593   30.9689 N   0  0  0  0  0  0  0  0  0  0  0  0
   20.8014    7.9070   31.5737 C   0  0  0  0  0  0  0  0  0  0  0  0
   19.9768    5.0897   31.8267 O   0  0  0  0  0  0  0  0  0  0  0  0
   21.5850    8.9671   31.3039 N   0  0  0  0  0  0  0  0  0  0  0  0
   21.2479   10.1768   31.8276 C   0  0  0  0  0  0  0  0  0  0  0  0
   20.1169   10.3605   32.6283 C   0  0  0  0  0  0  0  0  0  0  0  0
   19.3118    9.2416   32.8879 C   0  0  0  0  0  0  0  0  0  0  0  0
   19.6536    8.0047   32.3588 C   0  0  0  0  0  0  0  0  0  0  0  0
   26.3685    6.0669   30.2793 O   0  0  0  0  0  0  0  0  0  0  0  0
   26.0340    7.1983   29.4832 C   0  0  1  0  0  0  0  0  0  0  0  0
   22.5492    2.2654   31.7468 O   0  0  0  0  0  0  0  0  0  0  0  0
   22.9527    1.0277   32.3254 C   0  0  1  0  0  0  0  0  0  0  0  0
   18.1550    9.2982   33.6639 N   0  0  0  0  0  0  0  0  0  0  0  0
   19.8052   11.6838   33.1551 C   0  0  0  0  0  0  0  0  0  0  0  0
   22.0722   11.2485   31.5374 O   0  0  0  0  0  0  0  0  0  0  0  0
   23.1696   11.0837   30.6369 C   0  0  2  0  0  0  0  0  0  0  0  0
   23.8727   12.4357   30.4125 C   0  0  1  0  0  0  0  0  0  0  0  0
   19.5531   12.7317   33.5757 N   0  0  0  0  0  0  0  0  0  0  0  0
   25.2187    2.2670   32.3619 H   0  0  0  0  0  0  0  0  0  0  0  0
   23.6994    6.1112   29.6588 H   0  0  0  0  0  0  0  0  0  0  0  0
   19.0325    7.1447   32.5484 H   0  0  0  0  0  0  0  0  0  0  0  0
   21.1151    3.5166   30.2679 H   0  0  0  0  0  0  0  0  0  0  0  0
   21.5899    4.7995   29.1883 H   0  0  0  0  0  0  0  0  0  0  0  0
   22.0729    6.9300   30.3789 H   0  0  0  0  0  0  0  0  0  0  0  0
   25.3083    7.8405   29.9844 H   0  0  0  0  0  0  0  0  0  0  0  0
   26.9316    7.7918   29.3087 H   0  0  0  0  0  0  0  0  0  0  0  0
   25.6417    6.9021   28.5091 H   0  0  0  0  0  0  0  0  0  0  0  0
   22.0797    0.3860   32.4461 H   0  0  0  0  0  0  0  0  0  0  0  0
   23.6607    0.4983   31.6852 H   0  0  0  0  0  0  0  0  0  0  0  0
   23.3947    1.1706   33.3125 H   0  0  0  0  0  0  0  0  0  0  0  0
   17.7169    8.4327   33.9398 H   0  0  0  0  0  0  0  0  0  0  0  0
   17.9414   10.1605   34.1457 H   0  0  0  0  0  0  0  0  0  0  0  0
   22.8270   10.6899   29.6779 H   0  0  0  0  0  0  0  0  0  0  0  0
   23.8783   10.3639   31.0501 H   0  0  0  0  0  0  0  0  0  0  0  0
   23.1732   13.3022   29.5194 O   0  0  0  0  0  0  0  0  0  0  0  0
   24.0682   12.9344   31.3641 H   0  0  0  0  0  0  0  0  0  0  0  0
   24.8509   12.2496   29.9684 H   0  0  0  0  0  0  0  0  0  0  0  0
   21.9714   13.8665   30.0347 C   0  0  1  0  0  0  0  0  0  0  0  0
   22.1249   14.3411   31.0054 H   0  0  0  0  0  0  0  0  0  0  0  0
   21.6077   14.6296   29.3472 H   0  0  0  0  0  0  0  0  0  0  0  0
   21.1833   13.1193   30.1315 H   0  0  0  0  0  0  0  0  0  0  0  0
   26.8171    3.9791   31.6698 H   0  0  0  0  0  0  0  0  0  0  0  0
  1  2  1  0
  1  6  2  0
  1 27  1  0
  2  3  2  0
  2 19  1  0
  3  4  1  0
  3  7  1  0
  4  5  2  0
  4 28  1  0
  5  6  1  0
  5 17  1  0
  6 50  1  0
  7  8  1  0
  7 30  1  6
  7 31  1  0
  8  9  1  0
  8 11  2  0
  9 10  1  0
  9 32  1  0
 10 12  1  0
 10 16  2  0
 12 13  2  0
 13 14  1  0
 13 23  1  0
 14 15  2  0
 14 22  1  0
 15 16  1  0
 15 21  1  0
 16 29  1  0
 17 18  1  0
 18 33  1  1
 18 34  1  0
 18 35  1  0
 19 20  1  0
 20 36  1  1
 20 37  1  0
 20 38  1  0
 21 39  1  0
 21 40  1  0
 22 26  3  0
 23 24  1  0
 24 25  1  0
 24 41  1  6
 24 42  1  0
 25 43  1  0
 25 44  1  1
 25 45  1  0
 43 46  1  0
 46 47  1  1
 46 48  1  0
 46 49  1  0
M  END
