36 flip
     RDKit          3D

 53 57  0  0  1  0  0  0  0  0999 V2000
   92.5019   47.4809  266.5012 C   0  0  0  0  0  0  0  0  0  0  0  0
   91.4857   48.4054  266.7703 C   0  0  0  0  0  0  0  0  0  0  0  0
   91.8311   49.6033  267.4005 C   0  0  0  0  0  0  0  0  0  0  0  0
   93.1329   49.9008  267.8027 C   0  0  0  0  0  0  0  0  0  0  0  0
   93.8203   47.7090  266.9243 C   0  0  0  0  0  0  0  0  0  0  0  0
   94.1662   48.9379  267.5838 C   0  0  0  0  0  0  0  0  0  0  0  0
   95.4395   49.1394  268.0247 N   0  0  0  0  0  0  0  0  0  0  0  0
   96.3424   48.1461  267.8444 C   0  0  0  0  0  0  0  0  0  0  0  0
   96.0073   46.9541  267.2235 C   0  0  0  0  0  0  0  0  0  0  0  0
   94.7573   46.7424  266.7458 N   0  0  0  0  0  0  0  0  0  0  0  0
   93.3550   51.1745  268.5297 C   0  0  0  0  0  0  0  0  0  0  0  0
   92.6069   51.5051  269.6485 C   0  0  0  0  0  0  0  0  0  0  0  0
   92.8209   52.6920  270.3513 C   0  0  0  0  0  0  0  0  0  0  0  0
   94.3517   52.0422  268.0526 C   0  0  0  0  0  0  0  0  0  0  0  0
   94.5038   53.2751  268.6908 C   0  0  0  0  0  0  0  0  0  0  0  0
   93.7760   53.6054  269.8656 C   0  0  0  0  0  0  0  0  0  0  0  0
   94.2359   54.8906  270.2794 C   0  0  0  0  0  0  0  0  0  0  0  0
   95.0973   55.3594  269.2995 C   0  0  0  0  0  0  0  0  0  0  0  0
   95.2811   54.3612  268.3594 N   0  0  0  0  0  0  0  0  0  0  0  0
   90.1525   48.0937  266.3996 N   0  0  0  0  0  0  0  0  0  0  0  0
   96.1440   54.4592  267.1979 C   0  0  2  0  0  0  0  0  0  0  0  0
   89.8025   47.1713  265.4107 C   0  0  0  0  0  0  0  0  0  0  0  0
   88.7064   46.2853  265.4708 C   0  0  0  0  0  0  0  0  0  0  0  0
   88.3920   45.5465  264.3239 C   0  0  0  0  0  0  0  0  0  0  0  0
   89.1630   45.7166  263.1759 C   0  0  0  0  0  0  0  0  0  0  0  0
   90.3008   46.4328  263.1436 N   0  0  0  0  0  0  0  0  0  0  0  0
   90.6083   47.1291  264.2614 C   0  0  0  0  0  0  0  0  0  0  0  0
   87.7536   46.0522  266.9862 S   0  0  1  0  0  0  0  0  0  0  0  0
   87.6334   47.3703  267.6019 O   0  0  0  0  0  0  0  0  0  0  0  0
   86.5414   45.3174  266.6269 O   0  0  0  0  0  0  0  0  0  0  0  0
   88.7842   44.9495  268.1463 C   0  0  2  0  0  0  0  0  0  0  0  0
   89.0277   48.5933  267.1930 C   0  0  2  0  0  0  0  0  0  0  0  0
   92.2739   46.5354  266.0341 H   0  0  0  0  0  0  0  0  0  0  0  0
   91.0802   50.3370  267.6197 H   0  0  0  0  0  0  0  0  0  0  0  0
   97.3500   48.3260  268.1900 H   0  0  0  0  0  0  0  0  0  0  0  0
   96.7164   46.1616  267.0807 H   0  0  0  0  0  0  0  0  0  0  0  0
   91.8531   50.8168  270.0137 H   0  0  0  0  0  0  0  0  0  0  0  0
   92.2443   52.9153  271.2331 H   0  0  0  0  0  0  0  0  0  0  0  0
   94.9379   51.7787  267.1897 H   0  0  0  0  0  0  0  0  0  0  0  0
   93.9346   55.4369  271.1634 H   0  0  0  0  0  0  0  0  0  0  0  0
   95.6072   56.2837  269.2006 H   0  0  0  0  0  0  0  0  0  0  0  0
   96.5588   55.4618  267.1046 H   0  0  0  0  0  0  0  0  0  0  0  0
   95.5646   54.2361  266.3006 H   0  0  0  0  0  0  0  0  0  0  0  0
   96.9513   53.7329  267.2905 H   0  0  0  0  0  0  0  0  0  0  0  0
   87.6107   44.8283  264.3234 H   0  0  0  0  0  0  0  0  0  0  0  0
   88.8449   45.2396  262.2594 H   0  0  0  0  0  0  0  0  0  0  0  0
   91.4889   47.7368  264.2338 H   0  0  0  0  0  0  0  0  0  0  0  0
   88.2085   44.8033  269.0647 H   0  0  0  0  0  0  0  0  0  0  0  0
   89.7347   45.4322  268.3765 H   0  0  0  0  0  0  0  0  0  0  0  0
   88.9505   43.9840  267.6632 H   0  0  0  0  0  0  0  0  0  0  0  0
   88.8013   47.8870  268.0013 H   0  0  0  0  0  0  0  0  0  0  0  0
   88.1379   48.7100  266.5759 H   0  0  0  0  0  0  0  0  0  0  0  0
   89.2234   49.5809  267.6275 H   0  0  0  0  0  0  0  0  0  0  0  0
  1  2  2  0
  1  5  1  0
  1 33  1  0
  2  3  1  0
  2 20  1  0
  3  4  2  0
  3 34  1  0
  4  6  1  0
  4 11  1  0
  5  6  1  0
  5 10  2  0
  6  7  2  0
  7  8  1  0
  8  9  2  0
  8 35  1  0
  9 10  1  0
  9 36  1  0
 11 12  2  0
 11 14  1  0
 12 13  1  0
 12 37  1  0
 13 16  2  0
 13 38  1  0
 14 15  2  0
 14 39  1  0
 15 16  1  0
 15 19  1  0
 16 17  1  0
 17 18  2  0
 17 40  1  0
 18 19  1  0
 18 41  1  0
 19 21  1  0
 20 22  1  0
 20 32  1  0
 21 42  1  6
 21 43  1  0
 21 44  1  0
 22 23  2  0
 22 27  1  0
 23 24  1  0
 28 23  1  6
 24 25  2  0
 24 45  1  0
 25 26  1  0
 25 46  1  0
 26 27  2  0
 27 47  1  0
 28 29  2  0
 28 30  2  0
 28 31  1  0
 31 48  1  1
 31 49  1  0
 31 50  1  0
 32 51  1  1
 32 52  1  0
 32 53  1  0
M  END
