60 adjust flip
     RDKit          3D

 54 58  0  0  1  0  0  0  0  0999 V2000
   92.6660   47.2613  266.3406 C   0  0  0  0  0  0  0  0  0  0  0  0
   91.6770   48.2220  266.5146 C   0  0  0  0  0  0  0  0  0  0  0  0
   91.9879   49.4167  267.1425 C   0  0  0  0  0  0  0  0  0  0  0  0
   93.2709   49.6946  267.6279 C   0  0  0  0  0  0  0  0  0  0  0  0
   93.9719   47.4800  266.8354 C   0  0  0  0  0  0  0  0  0  0  0  0
   94.2913   48.7152  267.4805 C   0  0  0  0  0  0  0  0  0  0  0  0
   95.5450   48.9221  267.9883 N   0  0  0  0  0  0  0  0  0  0  0  0
   96.4599   47.9343  267.8372 C   0  0  0  0  0  0  0  0  0  0  0  0
   96.1350   46.7275  267.2279 C   0  0  0  0  0  0  0  0  0  0  0  0
   94.9013   46.4918  266.7230 N   0  0  0  0  0  0  0  0  0  0  0  0
   90.3487   47.9881  266.1437 N   0  0  0  0  0  0  0  0  0  0  0  0
   89.8102   47.2444  265.0862 C   0  0  0  0  0  0  0  0  0  0  0  0
   90.5239   47.0994  263.8922 C   0  0  0  0  0  0  0  0  0  0  0  0
   90.0430   46.4477  262.8068 N   0  0  0  0  0  0  0  0  0  0  0  0
   88.8025   45.9112  262.8993 C   0  0  0  0  0  0  0  0  0  0  0  0
   88.0213   45.9914  264.0502 C   0  0  0  0  0  0  0  0  0  0  0  0
   88.5247   46.6790  265.1618 C   0  0  0  0  0  0  0  0  0  0  0  0
   87.5572   46.7485  266.6776 S   0  0  1  0  0  0  0  0  0  0  0  0
   87.1788   48.1510  266.8691 O   0  0  0  0  0  0  0  0  0  0  0  0
   86.5183   45.7183  266.5777 O   0  0  0  0  0  0  0  0  0  0  0  0
   88.7266   46.2506  268.0679 C   0  0  2  0  0  0  0  0  0  0  0  0
   93.4545   50.9305  268.4147 C   0  0  0  0  0  0  0  0  0  0  0  0
   92.7020   51.2655  269.5524 C   0  0  0  0  0  0  0  0  0  0  0  0
   92.9995   52.4320  270.2703 C   0  0  0  0  0  0  0  0  0  0  0  0
   94.4612   51.7886  267.9854 C   0  0  0  0  0  0  0  0  0  0  0  0
   94.7478   52.9435  268.6714 C   0  0  0  0  0  0  0  0  0  0  0  0
   94.0291   53.2519  269.8073 C   0  0  0  0  0  0  0  0  0  0  0  0
   94.5070   54.3604  270.4439 O   0  0  0  0  0  0  0  0  0  0  0  0
   95.4744   54.9400  269.5655 C   0  0  2  0  0  0  0  0  0  0  0  0
   95.8572   53.9066  268.4532 C   0  0  2  0  0  0  0  0  0  0  0  0
   95.8425   54.5790  267.0846 C   0  0  2  0  0  0  0  0  0  0  0  0
   97.1846   53.1157  268.5295 C   0  0  2  0  0  0  0  0  0  0  0  0
   92.4190   46.3273  265.8706 H   0  0  0  0  0  0  0  0  0  0  0  0
   91.1990   50.1424  267.2856 H   0  0  0  0  0  0  0  0  0  0  0  0
   97.4509   48.1344  268.2160 H   0  0  0  0  0  0  0  0  0  0  0  0
   96.8601   45.9347  267.1210 H   0  0  0  0  0  0  0  0  0  0  0  0
   89.6448   48.3730  266.7646 H   0  0  0  0  0  0  0  0  0  0  0  0
   91.5092   47.5215  263.7899 H   0  0  0  0  0  0  0  0  0  0  0  0
   88.4352   45.3922  262.0288 H   0  0  0  0  0  0  0  0  0  0  0  0
   87.0510   45.5181  264.0657 H   0  0  0  0  0  0  0  0  0  0  0  0
   88.1499   46.1724  268.9872 H   0  0  0  0  0  0  0  0  0  0  0  0
   89.4900   47.0203  268.1858 H   0  0  0  0  0  0  0  0  0  0  0  0
   89.1843   45.2934  267.8234 H   0  0  0  0  0  0  0  0  0  0  0  0
   91.9146   50.6102  269.8957 H   0  0  0  0  0  0  0  0  0  0  0  0
   92.4515   52.6746  271.1684 H   0  0  0  0  0  0  0  0  0  0  0  0
   95.0468   51.5342  267.1134 H   0  0  0  0  0  0  0  0  0  0  0  0
   96.2882   55.3986  270.1139 H   0  0  0  0  0  0  0  0  0  0  0  0
   94.9595   55.7893  269.1152 H   0  0  0  0  0  0  0  0  0  0  0  0
   94.8514   54.9641  266.9222 H   0  0  0  0  0  0  0  0  0  0  0  0
   96.0686   53.8989  266.2630 H   0  0  0  0  0  0  0  0  0  0  0  0
   96.5268   55.4259  267.0401 H   0  0  0  0  0  0  0  0  0  0  0  0
   97.3593   52.7629  269.5446 H   0  0  0  0  0  0  0  0  0  0  0  0
   98.0412   53.7295  268.2511 H   0  0  0  0  0  0  0  0  0  0  0  0
   97.2071   52.2310  267.9010 H   0  0  0  0  0  0  0  0  0  0  0  0
  1  2  2  0
  1  5  1  0
  1 33  1  0
  2  3  1  0
  2 11  1  0
  3  4  2  0
  3 34  1  0
  4  6  1  0
  4 22  1  0
  5  6  1  0
  5 10  2  0
  6  7  2  0
  7  8  1  0
  8  9  2  0
  8 35  1  0
  9 10  1  0
  9 36  1  0
 11 12  1  0
 11 37  1  0
 12 13  2  0
 12 17  1  0
 13 14  1  0
 13 38  1  0
 14 15  2  0
 15 16  1  0
 15 39  1  0
 16 17  2  0
 16 40  1  0
 18 17  1  6
 18 19  2  0
 18 20  2  0
 18 21  1  0
 21 41  1  1
 21 42  1  0
 21 43  1  0
 22 23  2  0
 22 25  1  0
 23 24  1  0
 23 44  1  0
 24 27  2  0
 24 45  1  0
 25 26  2  0
 25 46  1  0
 26 27  1  0
 30 26  1  6
 27 28  1  0
 28 29  1  0
 29 30  1  0
 29 47  1  1
 29 48  1  0
 30 31  1  0
 30 32  1  0
 31 49  1  6
 31 50  1  0
 31 51  1  0
 32 52  1  1
 32 53  1  0
 32 54  1  0
M  END
