33 flip c
     RDKit          3D

 45 49  0  0  1  0  0  0  0  0999 V2000
   90.2783   48.1451  266.3142 N   0  0  0  0  0  0  0  0  0  0  0  0
   91.6169   48.3446  266.6738 C   0  0  0  0  0  0  0  0  0  0  0  0
   91.9745   49.5378  267.2907 C   0  0  0  0  0  0  0  0  0  0  0  0
   93.2869   49.8041  267.6905 C   0  0  0  0  0  0  0  0  0  0  0  0
   94.2733   48.7861  267.5115 C   0  0  0  0  0  0  0  0  0  0  0  0
   93.8958   47.5470  266.9048 C   0  0  0  0  0  0  0  0  0  0  0  0
   92.5700   47.3545  266.4704 C   0  0  0  0  0  0  0  0  0  0  0  0
   93.5906   51.1033  268.3373 C   0  0  0  0  0  0  0  0  0  0  0  0
   92.8994   51.4914  269.4956 C   0  0  0  0  0  0  0  0  0  0  0  0
   93.1634   52.6978  270.1412 C   0  0  0  0  0  0  0  0  0  0  0  0
   94.1519   53.5287  269.6101 C   0  0  0  0  0  0  0  0  0  0  0  0
   94.8148   53.1432  268.3930 C   0  0  0  0  0  0  0  0  0  0  0  0
   94.5600   51.9252  267.7681 C   0  0  0  0  0  0  0  0  0  0  0  0
   94.6983   54.7874  269.9962 C   0  0  0  0  0  0  0  0  0  0  0  0
   95.5955   55.1239  269.0281 C   0  0  0  0  0  0  0  0  0  0  0  0
   95.6507   54.1910  268.0536 N   0  0  0  0  0  0  0  0  0  0  0  0
   94.7935   46.5354  266.7547 N   0  0  0  0  0  0  0  0  0  0  0  0
   96.0594   46.7465  267.1790 C   0  0  0  0  0  0  0  0  0  0  0  0
   96.4464   47.9594  267.7361 C   0  0  0  0  0  0  0  0  0  0  0  0
   95.5618   48.9678  267.9325 N   0  0  0  0  0  0  0  0  0  0  0  0
   96.4664   54.3380  266.8497 C   0  0  2  0  0  0  0  0  0  0  0  0
   89.7124   47.3504  265.2983 C   0  0  0  0  0  0  0  0  0  0  0  0
   90.4202   47.0081  264.1266 C   0  0  0  0  0  0  0  0  0  0  0  0
   89.8222   46.1559  263.1926 C   0  0  0  0  0  0  0  0  0  0  0  0
   88.5471   45.6637  263.4541 C   0  0  0  0  0  0  0  0  0  0  0  0
   87.8422   45.9740  264.5684 N   0  0  0  0  0  0  0  0  0  0  0  0
   88.4299   46.8103  265.4600 C   0  0  0  0  0  0  0  0  0  0  0  0
   91.7477   47.5358  263.8250 C   0  0  0  0  0  0  0  0  0  0  0  0
   92.7989   47.9554  263.5880 N   0  0  0  0  0  0  0  0  0  0  0  0
   89.6015   48.6327  266.8831 H   0  0  0  0  0  0  0  0  0  0  0  0
   91.2174   50.2910  267.4543 H   0  0  0  0  0  0  0  0  0  0  0  0
   92.2810   46.4076  266.0446 H   0  0  0  0  0  0  0  0  0  0  0  0
   92.1562   50.8337  269.9207 H   0  0  0  0  0  0  0  0  0  0  0  0
   92.6255   52.9744  271.0416 H   0  0  0  0  0  0  0  0  0  0  0  0
   95.0952   51.6359  266.8667 H   0  0  0  0  0  0  0  0  0  0  0  0
   94.4580   55.4209  270.8365 H   0  0  0  0  0  0  0  0  0  0  0  0
   96.1946   56.0066  268.9250 H   0  0  0  0  0  0  0  0  0  0  0  0
   96.7637   45.9455  267.0078 H   0  0  0  0  0  0  0  0  0  0  0  0
   97.4654   48.1560  268.0273 H   0  0  0  0  0  0  0  0  0  0  0  0
   97.0036   55.2908  266.8910 H   0  0  0  0  0  0  0  0  0  0  0  0
   95.8146   54.3562  265.9790 H   0  0  0  0  0  0  0  0  0  0  0  0
   97.1877   53.5273  266.7972 H   0  0  0  0  0  0  0  0  0  0  0  0
   90.3282   45.8819  262.2766 H   0  0  0  0  0  0  0  0  0  0  0  0
   88.0769   45.0105  262.7422 H   0  0  0  0  0  0  0  0  0  0  0  0
   87.8491   47.0400  266.3346 H   0  0  0  0  0  0  0  0  0  0  0  0
  1  2  1  0
  1 22  1  0
  1 30  1  0
  2  3  2  0
  2  7  1  0
  3  4  1  0
  3 31  1  0
  4  5  2  0
  4  8  1  0
  5 20  1  0
  5  6  1  0
  6  7  2  0
  6 17  1  0
  7 32  1  0
  8  9  2  0
  8 13  1  0
  9 10  1  0
  9 33  1  0
 10 11  2  0
 10 34  1  0
 11 14  1  0
 11 12  1  0
 12 13  2  0
 12 16  1  0
 13 35  1  0
 14 15  2  0
 14 36  1  0
 15 16  1  0
 15 37  1  0
 16 21  1  0
 17 18  2  0
 18 19  1  0
 18 38  1  0
 19 20  2  0
 19 39  1  0
 21 40  1  1
 21 41  1  0
 21 42  1  0
 22 23  1  0
 22 27  2  0
 23 24  2  0
 23 28  1  0
 24 25  1  0
 24 43  1  0
 25 26  2  0
 25 44  1  0
 26 27  1  0
 27 45  1  0
 28 29  3  0
M  END
