31 flip b
     RDKit          3D

 48 52  0  0  1  0  0  0  0  0999 V2000
   90.2734   48.1373  266.3119 N   0  0  0  0  0  0  0  0  0  0  0  0
   91.6117   48.3398  266.6726 C   0  0  0  0  0  0  0  0  0  0  0  0
   91.9712   49.5358  267.2869 C   0  0  0  0  0  0  0  0  0  0  0  0
   93.2859   49.8045  267.6861 C   0  0  0  0  0  0  0  0  0  0  0  0
   92.5671   47.3483  266.4685 C   0  0  0  0  0  0  0  0  0  0  0  0
   93.8944   47.5452  266.9039 C   0  0  0  0  0  0  0  0  0  0  0  0
   94.2720   48.7853  267.5093 C   0  0  0  0  0  0  0  0  0  0  0  0
   95.5613   48.9672  267.9330 N   0  0  0  0  0  0  0  0  0  0  0  0
   96.4474   47.9577  267.7413 C   0  0  0  0  0  0  0  0  0  0  0  0
   96.0603   46.7471  267.1804 C   0  0  0  0  0  0  0  0  0  0  0  0
   94.7948   46.5347  266.7539 N   0  0  0  0  0  0  0  0  0  0  0  0
   93.5898   51.1081  268.3324 C   0  0  0  0  0  0  0  0  0  0  0  0
   94.5658   51.9591  267.8021 C   0  0  0  0  0  0  0  0  0  0  0  0
   94.8582   53.1934  268.3840 C   0  0  0  0  0  0  0  0  0  0  0  0
   92.8861   51.4597  269.4865 C   0  0  0  0  0  0  0  0  0  0  0  0
   92.7260   53.2479  271.2608 N   0  0  0  0  0  0  0  0  0  0  0  0
   93.1982   52.6767  270.0937 C   0  0  0  0  0  0  0  0  0  0  0  0
   94.1524   53.5738  269.5353 C   0  0  0  0  0  0  0  0  0  0  0  0
   94.1575   54.7293  270.3755 C   0  0  0  0  0  0  0  0  0  0  0  0
   93.3428   54.4594  271.4429 C   0  0  0  0  0  0  0  0  0  0  0  0
   91.7409   52.6665  272.1542 C   0  0  2  0  0  0  0  0  0  0  0  0
   88.4179   46.8410  265.3962 C   0  0  0  0  0  0  0  0  0  0  0  0
   89.7187   47.3508  265.2862 C   0  0  0  0  0  0  0  0  0  0  0  0
   90.4754   47.0143  264.1472 C   0  0  0  0  0  0  0  0  0  0  0  0
   89.8910   46.1691  263.1858 C   0  0  0  0  0  0  0  0  0  0  0  0
   88.5942   45.6975  263.3899 C   0  0  0  0  0  0  0  0  0  0  0  0
   87.8519   46.0220  264.4759 N   0  0  0  0  0  0  0  0  0  0  0  0
   91.7547   47.5332  264.0273 O   0  0  0  0  0  0  0  0  0  0  0  0
   92.6796   46.8894  263.1513 C   0  0  2  0  0  0  0  0  0  0  0  0
   89.5868   48.6125  266.8810 H   0  0  0  0  0  0  0  0  0  0  0  0
   91.2113   50.2874  267.4491 H   0  0  0  0  0  0  0  0  0  0  0  0
   92.2845   46.4012  266.0294 H   0  0  0  0  0  0  0  0  0  0  0  0
   97.4673   48.1422  268.0436 H   0  0  0  0  0  0  0  0  0  0  0  0
   96.7683   45.9465  267.0190 H   0  0  0  0  0  0  0  0  0  0  0  0
   95.0959   51.6639  266.9069 H   0  0  0  0  0  0  0  0  0  0  0  0
   95.6099   53.8355  267.9427 H   0  0  0  0  0  0  0  0  0  0  0  0
   92.1435   50.7994  269.9124 H   0  0  0  0  0  0  0  0  0  0  0  0
   94.7478   55.6229  270.2556 H   0  0  0  0  0  0  0  0  0  0  0  0
   93.1309   55.0547  272.3177 H   0  0  0  0  0  0  0  0  0  0  0  0
   92.1012   51.7055  272.5204 H   0  0  0  0  0  0  0  0  0  0  0  0
   90.8126   52.5158  271.6044 H   0  0  0  0  0  0  0  0  0  0  0  0
   91.5524   53.3252  273.0018 H   0  0  0  0  0  0  0  0  0  0  0  0
   87.8048   47.0831  266.2486 H   0  0  0  0  0  0  0  0  0  0  0  0
   90.4156   45.8737  262.2883 H   0  0  0  0  0  0  0  0  0  0  0  0
   88.1291   45.0461  262.6650 H   0  0  0  0  0  0  0  0  0  0  0  0
   93.6180   47.4433  263.1639 H   0  0  0  0  0  0  0  0  0  0  0  0
   92.3228   46.8735  262.1191 H   0  0  0  0  0  0  0  0  0  0  0  0
   92.9067   45.8689  263.4618 H   0  0  0  0  0  0  0  0  0  0  0  0
  1  2  1  0
  1 23  1  0
  1 30  1  0
  2  3  2  0
  2  5  1  0
  3  4  1  0
  3 31  1  0
  4  7  2  0
  4 12  1  0
  5  6  2  0
  5 32  1  0
  6  7  1  0
  6 11  1  0
  7  8  1  0
  8  9  2  0
  9 10  1  0
  9 33  1  0
 10 11  2  0
 10 34  1  0
 12 13  2  0
 12 15  1  0
 13 14  1  0
 13 35  1  0
 14 18  2  0
 14 36  1  0
 15 17  2  0
 15 37  1  0
 16 17  1  0
 16 20  1  0
 16 21  1  0
 17 18  1  0
 18 19  1  0
 19 20  2  0
 19 38  1  0
 20 39  1  0
 21 40  1  1
 21 41  1  0
 21 42  1  0
 22 23  2  0
 22 27  1  0
 22 43  1  0
 23 24  1  0
 24 25  2  0
 24 28  1  0
 25 26  1  0
 25 44  1  0
 26 27  2  0
 26 45  1  0
 28 29  1  0
 29 46  1  6
 29 47  1  0
 29 48  1  0
M  END
