34 flip
     RDKit          3D

 48 52  0  0  1  0  0  0  0  0999 V2000
   92.5675   47.3476  266.4818 C   0  0  0  0  0  0  0  0  0  0  0  0
   91.6195   48.3446  266.6702 C   0  0  0  0  0  0  0  0  0  0  0  0
   91.9774   49.5404  267.2822 C   0  0  0  0  0  0  0  0  0  0  0  0
   93.2882   49.8046  267.6879 C   0  0  0  0  0  0  0  0  0  0  0  0
   94.2739   48.7854  267.5113 C   0  0  0  0  0  0  0  0  0  0  0  0
   93.8948   47.5437  266.9102 C   0  0  0  0  0  0  0  0  0  0  0  0
   94.7936   46.5330  266.7587 N   0  0  0  0  0  0  0  0  0  0  0  0
   95.5623   48.9682  267.9318 N   0  0  0  0  0  0  0  0  0  0  0  0
   96.4466   47.9594  267.7367 C   0  0  0  0  0  0  0  0  0  0  0  0
   96.0613   46.7461  267.1800 C   0  0  0  0  0  0  0  0  0  0  0  0
   90.2825   48.1494  266.3000 N   0  0  0  0  0  0  0  0  0  0  0  0
   93.5910   51.1031  268.3371 C   0  0  0  0  0  0  0  0  0  0  0  0
   92.8987   51.4874  269.4957 C   0  0  0  0  0  0  0  0  0  0  0  0
   93.1611   52.6916  270.1457 C   0  0  0  0  0  0  0  0  0  0  0  0
   94.1497   53.5247  269.6182 C   0  0  0  0  0  0  0  0  0  0  0  0
   94.8143   53.1435  268.4006 C   0  0  0  0  0  0  0  0  0  0  0  0
   94.5609   51.9273  267.7710 C   0  0  0  0  0  0  0  0  0  0  0  0
   94.6944   54.7822  270.0092 C   0  0  0  0  0  0  0  0  0  0  0  0
   95.5915   55.1238  269.0428 C   0  0  0  0  0  0  0  0  0  0  0  0
   95.6498   54.1928  268.0655 N   0  0  0  0  0  0  0  0  0  0  0  0
   89.7058   47.3516  265.2944 C   0  0  0  0  0  0  0  0  0  0  0  0
   96.4665   54.3440  266.8630 C   0  0  2  0  0  0  0  0  0  0  0  0
   88.4003   46.8132  265.3997 C   0  0  0  0  0  0  0  0  0  0  0  0
   87.8903   46.1026  264.3004 C   0  0  0  0  0  0  0  0  0  0  0  0
   88.6717   45.9405  263.1626 C   0  0  0  0  0  0  0  0  0  0  0  0
   89.9225   46.4384  263.0456 N   0  0  0  0  0  0  0  0  0  0  0  0
   90.4118   47.1270  264.1049 C   0  0  0  0  0  0  0  0  0  0  0  0
   87.5461   46.9593  266.6443 C   0  0  0  0  0  0  0  0  0  0  0  0
   86.6807   45.9742  266.8909 N   0  0  0  0  0  0  0  0  0  0  0  0
   87.6482   47.9220  267.4000 O   0  0  0  0  0  0  0  0  0  0  0  0
   92.2748   46.4011  266.0567 H   0  0  0  0  0  0  0  0  0  0  0  0
   91.2199   50.2936  267.4430 H   0  0  0  0  0  0  0  0  0  0  0  0
   97.4656   48.1565  268.0267 H   0  0  0  0  0  0  0  0  0  0  0  0
   96.7640   45.9455  267.0078 H   0  0  0  0  0  0  0  0  0  0  0  0
   89.5926   48.5988  266.8874 H   0  0  0  0  0  0  0  0  0  0  0  0
   92.1558   50.8275  269.9174 H   0  0  0  0  0  0  0  0  0  0  0  0
   92.6214   52.9646  271.0464 H   0  0  0  0  0  0  0  0  0  0  0  0
   95.0971   51.6407  266.8693 H   0  0  0  0  0  0  0  0  0  0  0  0
   94.4534   55.4132  270.8511 H   0  0  0  0  0  0  0  0  0  0  0  0
   96.1885   56.0080  268.9442 H   0  0  0  0  0  0  0  0  0  0  0  0
   97.0023   55.2969  266.9081 H   0  0  0  0  0  0  0  0  0  0  0  0
   95.8159   54.3646  265.9913 H   0  0  0  0  0  0  0  0  0  0  0  0
   97.1887   53.5342  266.8081 H   0  0  0  0  0  0  0  0  0  0  0  0
   86.8976   45.6795  264.3121 H   0  0  0  0  0  0  0  0  0  0  0  0
   88.2724   45.3933  262.3292 H   0  0  0  0  0  0  0  0  0  0  0  0
   91.4048   47.5141  263.9802 H   0  0  0  0  0  0  0  0  0  0  0  0
   86.0899   46.0225  267.7060 H   0  0  0  0  0  0  0  0  0  0  0  0
   86.6017   45.1896  266.2549 H   0  0  0  0  0  0  0  0  0  0  0  0
  1  2  1  0
  1  6  2  0
  1 31  1  0
  2  3  2  0
  2 11  1  0
  3  4  1  0
  3 32  1  0
  4  5  2  0
  4 12  1  0
  5  6  1  0
  5  8  1  0
  6  7  1  0
  7 10  2  0
  8  9  2  0
  9 10  1  0
  9 33  1  0
 10 34  1  0
 11 21  1  0
 11 35  1  0
 12 13  2  0
 12 17  1  0
 13 14  1  0
 13 36  1  0
 14 15  2  0
 14 37  1  0
 15 18  1  0
 15 16  1  0
 16 17  2  0
 16 20  1  0
 17 38  1  0
 18 19  2  0
 18 39  1  0
 19 20  1  0
 19 40  1  0
 20 22  1  0
 21 27  1  0
 21 23  2  0
 22 41  1  1
 22 42  1  0
 22 43  1  0
 23 24  1  0
 23 28  1  0
 24 25  2  0
 24 44  1  0
 25 26  1  0
 25 45  1  0
 26 27  2  0
 27 46  1  0
 28 29  1  0
 28 30  2  0
 29 47  1  0
 29 48  1  0
M  END
