24 flip c
     RDKit          3D

 46 50  0  0  1  0  0  0  0  0999 V2000
   94.7934   46.5310  266.7559 N   0  0  0  0  0  0  0  0  0  0  0  0
   95.5582   48.9639  267.9334 N   0  0  0  0  0  0  0  0  0  0  0  0
   96.4466   47.9569  267.7437 C   0  0  0  0  0  0  0  0  0  0  0  0
   96.0618   46.7455  267.1837 C   0  0  0  0  0  0  0  0  0  0  0  0
   94.2697   48.7791  267.5052 C   0  0  0  0  0  0  0  0  0  0  0  0
   93.8901   47.5407  266.8989 C   0  0  0  0  0  0  0  0  0  0  0  0
   92.5600   47.3451  266.4593 C   0  0  0  0  0  0  0  0  0  0  0  0
   91.6063   48.3396  266.6555 C   0  0  0  0  0  0  0  0  0  0  0  0
   91.9699   49.5311  267.2767 C   0  0  0  0  0  0  0  0  0  0  0  0
   93.2841   49.7958  267.6804 C   0  0  0  0  0  0  0  0  0  0  0  0
   93.5907   51.0925  268.3264 C   0  0  0  0  0  0  0  0  0  0  0  0
   90.2614   48.1538  266.3036 N   0  0  0  0  0  0  0  0  0  0  0  0
   92.9304   51.4874  269.4972 C   0  0  0  0  0  0  0  0  0  0  0  0
   93.2092   52.6950  270.1381 C   0  0  0  0  0  0  0  0  0  0  0  0
   94.5473   51.9222  267.7371 C   0  0  0  0  0  0  0  0  0  0  0  0
   94.8164   53.1406  268.3615 C   0  0  0  0  0  0  0  0  0  0  0  0
   94.1915   53.5256  269.5815 C   0  0  0  0  0  0  0  0  0  0  0  0
   94.7593   54.7822  269.9475 C   0  0  0  0  0  0  0  0  0  0  0  0
   95.6358   55.1434  268.9508 C   0  0  0  0  0  0  0  0  0  0  0  0
   95.6543   54.1770  267.9836 N   0  0  0  0  0  0  0  0  0  0  0  0
   96.4173   54.2503  266.7528 C   0  0  2  0  0  0  0  0  0  0  0  0
   89.6457   47.3771  265.3001 C   0  0  0  0  0  0  0  0  0  0  0  0
   88.3199   46.9483  265.4565 C   0  0  0  0  0  0  0  0  0  0  0  0
   87.7129   46.1329  264.5017 C   0  0  0  0  0  0  0  0  0  0  0  0
   88.4240   45.7310  263.3754 C   0  0  0  0  0  0  0  0  0  0  0  0
   89.7439   46.1394  263.2048 C   0  0  0  0  0  0  0  0  0  0  0  0
   90.3627   46.9569  264.1577 C   0  0  0  0  0  0  0  0  0  0  0  0
   91.7454   47.3532  263.9045 C   0  0  0  0  0  0  0  0  0  0  0  0
   92.8424   47.6626  263.7083 N   0  0  0  0  0  0  0  0  0  0  0  0
   97.4675   48.1440  268.0431 H   0  0  0  0  0  0  0  0  0  0  0  0
   96.7682   45.9462  267.0194 H   0  0  0  0  0  0  0  0  0  0  0  0
   92.2766   46.3948  266.0294 H   0  0  0  0  0  0  0  0  0  0  0  0
   91.2125   50.2847  267.4445 H   0  0  0  0  0  0  0  0  0  0  0  0
   89.6053   48.6279  266.9087 H   0  0  0  0  0  0  0  0  0  0  0  0
   92.1909   50.8294  269.9379 H   0  0  0  0  0  0  0  0  0  0  0  0
   92.6891   52.9666  271.0519 H   0  0  0  0  0  0  0  0  0  0  0  0
   95.0531   51.6341  266.8208 H   0  0  0  0  0  0  0  0  0  0  0  0
   94.5107   55.3971  270.8143 H   0  0  0  0  0  0  0  0  0  0  0  0
   96.2454   56.0261  268.8315 H   0  0  0  0  0  0  0  0  0  0  0  0
   96.9769   55.1859  266.7115 H   0  0  0  0  0  0  0  0  0  0  0  0
   95.7375   54.2168  265.9031 H   0  0  0  0  0  0  0  0  0  0  0  0
   97.1037   53.4077  266.6981 H   0  0  0  0  0  0  0  0  0  0  0  0
   87.7532   47.2358  266.3277 H   0  0  0  0  0  0  0  0  0  0  0  0
   86.6869   45.8203  264.6228 H   0  0  0  0  0  0  0  0  0  0  0  0
   87.9527   45.1211  262.6198 H   0  0  0  0  0  0  0  0  0  0  0  0
   90.2696   45.8303  262.3089 H   0  0  0  0  0  0  0  0  0  0  0  0
  1  4  1  0
  1  6  2  0
  2  3  1  0
  2  5  2  0
  3  4  2  0
  3 30  1  0
  4 31  1  0
  5  6  1  0
  5 10  1  0
  6  7  1  0
  7  8  2  0
  7 32  1  0
  8  9  1  0
  8 12  1  0
  9 10  2  0
  9 33  1  0
 10 11  1  0
 11 13  2  0
 11 15  1  0
 12 22  1  0
 12 34  1  0
 13 14  1  0
 13 35  1  0
 14 17  2  0
 14 36  1  0
 15 16  2  0
 15 37  1  0
 16 17  1  0
 16 20  1  0
 17 18  1  0
 18 19  2  0
 18 38  1  0
 19 20  1  0
 19 39  1  0
 20 21  1  0
 21 40  1  1
 21 41  1  0
 21 42  1  0
 22 23  2  0
 22 27  1  0
 23 24  1  0
 23 43  1  0
 24 25  2  0
 24 44  1  0
 25 26  1  0
 25 45  1  0
 26 27  2  0
 26 46  1  0
 27 28  1  0
 28 29  3  0
M  END
