55 flip
     RDKit          3D

 50 54  0  0  1  0  0  0  0  0999 V2000
   91.6118   48.3366  266.6739 C   0  0  0  0  0  0  0  0  0  0  0  0
   91.9698   49.5336  267.2864 C   0  0  0  0  0  0  0  0  0  0  0  0
   93.2850   49.8006  267.6832 C   0  0  0  0  0  0  0  0  0  0  0  0
   92.5678   47.3462  266.4685 C   0  0  0  0  0  0  0  0  0  0  0  0
   93.8944   47.5432  266.9034 C   0  0  0  0  0  0  0  0  0  0  0  0
   94.2719   48.7828  267.5077 C   0  0  0  0  0  0  0  0  0  0  0  0
   95.5609   48.9661  267.9314 N   0  0  0  0  0  0  0  0  0  0  0  0
   96.4476   47.9576  267.7393 C   0  0  0  0  0  0  0  0  0  0  0  0
   96.0612   46.7472  267.1782 C   0  0  0  0  0  0  0  0  0  0  0  0
   94.7955   46.5340  266.7522 N   0  0  0  0  0  0  0  0  0  0  0  0
   90.2745   48.1296  266.3175 N   0  0  0  0  0  0  0  0  0  0  0  0
   93.5938   51.0998  268.3264 C   0  0  0  0  0  0  0  0  0  0  0  0
   92.9326   51.4919  269.4942 C   0  0  0  0  0  0  0  0  0  0  0  0
   93.2168   52.6997  270.1249 C   0  0  0  0  0  0  0  0  0  0  0  0
   94.5493   51.9258  267.7316 C   0  0  0  0  0  0  0  0  0  0  0  0
   94.8183   53.1468  268.3443 C   0  0  0  0  0  0  0  0  0  0  0  0
   94.1942   53.5397  269.5640 C   0  0  0  0  0  0  0  0  0  0  0  0
   94.7652   54.8047  269.9221 C   0  0  0  0  0  0  0  0  0  0  0  0
   95.6499   55.1450  268.9288 C   0  0  0  0  0  0  0  0  0  0  0  0
   95.6566   54.1767  267.9579 N   0  0  0  0  0  0  0  0  0  0  0  0
   96.4234   54.2428  266.7227 C   0  0  2  0  0  0  0  0  0  0  0  0
   89.7167   47.3494  265.2904 C   0  0  0  0  0  0  0  0  0  0  0  0
   90.4217   47.1254  264.0999 C   0  0  0  0  0  0  0  0  0  0  0  0
   89.9191   46.4337  263.0465 N   0  0  0  0  0  0  0  0  0  0  0  0
   88.6626   45.9393  263.1648 C   0  0  0  0  0  0  0  0  0  0  0  0
   87.8878   46.0972  264.3127 C   0  0  0  0  0  0  0  0  0  0  0  0
   88.4240   46.8050  265.3972 C   0  0  0  0  0  0  0  0  0  0  0  0
   87.4806   46.8913  266.9254 S   0  0  2  0  0  0  0  0  0  0  0  0
   86.1391   46.3662  266.6675 O   0  0  0  0  0  0  0  0  0  0  0  0
   87.6492   48.2412  267.4790 O   0  0  0  0  0  0  0  0  0  0  0  0
   88.3838   45.6765  268.0468 C   0  0  2  0  0  0  0  0  0  0  0  0
   92.5660   53.0265  271.2667 F   0  0  0  0  0  0  0  0  0  0  0  0
   91.2097   50.2861  267.4498 H   0  0  0  0  0  0  0  0  0  0  0  0
   92.2873   46.4001  266.0276 H   0  0  0  0  0  0  0  0  0  0  0  0
   97.4668   48.1419  268.0435 H   0  0  0  0  0  0  0  0  0  0  0  0
   96.7689   45.9467  267.0182 H   0  0  0  0  0  0  0  0  0  0  0  0
   89.5852   48.6214  266.8768 H   0  0  0  0  0  0  0  0  0  0  0  0
   92.1941   50.8395  269.9406 H   0  0  0  0  0  0  0  0  0  0  0  0
   95.0582   51.6368  266.8232 H   0  0  0  0  0  0  0  0  0  0  0  0
   94.5174   55.4067  270.7796 H   0  0  0  0  0  0  0  0  0  0  0  0
   96.2713   56.0196  268.8159 H   0  0  0  0  0  0  0  0  0  0  0  0
   97.1046   53.3954  266.6684 H   0  0  0  0  0  0  0  0  0  0  0  0
   96.9925   55.1722  266.6635 H   0  0  0  0  0  0  0  0  0  0  0  0
   95.7418   54.2034  265.8728 H   0  0  0  0  0  0  0  0  0  0  0  0
   91.4224   47.5032  263.9725 H   0  0  0  0  0  0  0  0  0  0  0  0
   88.2774   45.3841  262.3232 H   0  0  0  0  0  0  0  0  0  0  0  0
   86.9004   45.6554  264.3643 H   0  0  0  0  0  0  0  0  0  0  0  0
   87.8695   45.6352  269.0056 H   0  0  0  0  0  0  0  0  0  0  0  0
   89.4113   46.0126  268.1793 H   0  0  0  0  0  0  0  0  0  0  0  0
   88.3656   44.6930  267.5796 H   0  0  0  0  0  0  0  0  0  0  0  0
  1  2  2  0
  1  4  1  0
  1 11  1  0
  2  3  1  0
  2 33  1  0
  3  6  2  0
  3 12  1  0
  4  5  2  0
  4 34  1  0
  5  6  1  0
  5 10  1  0
  6  7  1  0
  7  8  2  0
  8  9  1  0
  8 35  1  0
  9 10  2  0
  9 36  1  0
 11 22  1  0
 11 37  1  0
 12 13  2  0
 12 15  1  0
 13 14  1  0
 13 38  1  0
 14 17  2  0
 14 32  1  0
 15 16  2  0
 15 39  1  0
 16 17  1  0
 16 20  1  0
 17 18  1  0
 18 19  2  0
 18 40  1  0
 19 20  1  0
 19 41  1  0
 20 21  1  0
 21 42  1  6
 21 43  1  0
 21 44  1  0
 22 23  2  0
 22 27  1  0
 23 24  1  0
 23 45  1  0
 24 25  2  0
 25 26  1  0
 25 46  1  0
 26 27  2  0
 26 47  1  0
 28 27  1  6
 28 29  2  0
 28 30  2  0
 28 31  1  0
 31 48  1  1
 31 49  1  0
 31 50  1  0
M  END
