19971
     RDKit          3D

 41 44  0  0  1  0  0  0  0  0999 V2000
   11.0188   11.8141   14.9086 C   0  0  1  0  0  0  0  0  0  0  0  0
   11.7487   10.5992   14.8217 O   0  0  0  0  0  0  0  0  0  0  0  0
   11.1678    9.4486   15.3151 C   0  0  0  0  0  0  0  0  0  0  0  0
    9.8810    9.4064   15.9106 C   0  0  0  0  0  0  0  0  0  0  0  0
    9.3326    8.1991   16.4018 C   0  0  0  0  0  0  0  0  0  0  0  0
    7.9906    8.1721   17.0179 C   0  0  0  0  0  0  0  0  0  0  0  0
    7.1573    7.0256   16.8902 C   0  0  0  0  0  0  0  0  0  0  0  0
    5.8689    6.9746   17.4704 C   0  0  0  0  0  0  0  0  0  0  0  0
    5.4237    8.0990   18.1855 C   0  0  0  0  0  0  0  0  0  0  0  0
    4.1749    8.3750   18.8887 C   0  0  0  0  0  0  0  0  0  0  0  0
    3.1203    7.5375   19.0101 C   0  0  0  0  0  0  0  0  0  0  0  0
    1.7968    7.7589   19.6165 C   0  0  0  0  0  0  0  0  0  0  0  0
    0.5214    7.3957   19.0880 C   0  0  0  0  0  0  0  0  0  0  0  0
   -0.4217    7.8070   19.9898 C   0  0  0  0  0  0  0  0  0  0  0  0
    0.2514    8.4011   21.0385 N   0  0  0  0  0  0  0  0  0  0  0  0
    1.6131    8.3758   20.8220 C   0  0  0  0  0  0  0  0  0  0  0  0
    4.3362    9.7184   19.4616 C   0  0  0  0  0  0  0  0  0  0  0  0
    3.5835   10.3455   20.2030 O   0  0  0  0  0  0  0  0  0  0  0  0
    5.5425   10.1673   19.0709 N   0  0  0  0  0  0  0  0  0  0  0  0
    6.2271    9.2154   18.3138 C   0  0  0  0  0  0  0  0  0  0  0  0
    7.5097    9.2896   17.7479 C   0  0  0  0  0  0  0  0  0  0  0  0
   10.0994    7.0188   16.2884 C   0  0  0  0  0  0  0  0  0  0  0  0
   11.3767    7.0427   15.7006 C   0  0  0  0  0  0  0  0  0  0  0  0
   11.9090    8.2514   15.2159 C   0  0  0  0  0  0  0  0  0  0  0  0
   13.1510    8.2563   14.6477 O   0  0  0  0  0  0  0  0  0  0  0  0
   11.6104   12.6202   14.4749 H   0  0  0  0  0  0  0  0  0  0  0  0
   10.0820   11.7575   14.3527 H   0  0  0  0  0  0  0  0  0  0  0  0
   10.8098   12.0806   15.9455 H   0  0  0  0  0  0  0  0  0  0  0  0
    9.2938   10.3063   16.0088 H   0  0  0  0  0  0  0  0  0  0  0  0
    7.5109    6.1631   16.3445 H   0  0  0  0  0  0  0  0  0  0  0  0
    5.2496    6.0963   17.3648 H   0  0  0  0  0  0  0  0  0  0  0  0
    3.2139    6.5750   18.5293 H   0  0  0  0  0  0  0  0  0  0  0  0
    0.3114    6.8826   18.1614 H   0  0  0  0  0  0  0  0  0  0  0  0
   -1.4992    7.7312   19.9856 H   0  0  0  0  0  0  0  0  0  0  0  0
   -0.1930    8.7996   21.8535 H   0  0  0  0  0  0  0  0  0  0  0  0
    2.3083    8.7961   21.5340 H   0  0  0  0  0  0  0  0  0  0  0  0
    5.9412   11.0601   19.3218 H   0  0  0  0  0  0  0  0  0  0  0  0
    8.1063   10.1823   17.8650 H   0  0  0  0  0  0  0  0  0  0  0  0
    9.7065    6.0787   16.6468 H   0  0  0  0  0  0  0  0  0  0  0  0
   11.9448    6.1273   15.6223 H   0  0  0  0  0  0  0  0  0  0  0  0
   13.3721    7.4400   14.2270 H   0  0  0  0  0  0  0  0  0  0  0  0
  1  2  1  0
  1 26  1  6
  1 27  1  0
  1 28  1  0
  2  3  1  0
  3 24  1  0
  3  4  2  0
  4  5  1  0
  4 29  1  0
  5  6  1  0
  5 22  2  0
  6 21  1  0
  6  7  2  0
  7  8  1  0
  7 30  1  0
  8  9  2  0
  8 31  1  0
  9 20  1  0
  9 10  1  0
 10 11  2  0
 10 17  1  0
 11 12  1  0
 11 32  1  0
 12 16  2  0
 12 13  1  0
 13 14  2  0
 13 33  1  0
 14 15  1  0
 14 34  1  0
 15 16  1  0
 15 35  1  0
 16 36  1  0
 17 18  2  0
 17 19  1  0
 19 20  1  0
 19 37  1  0
 20 21  2  0
 21 38  1  0
 22 23  1  0
 22 39  1  0
 23 24  2  0
 23 40  1  0
 24 25  1  0
 25 41  1  0
M  END
