17353_cys
     RDKit          3D

 41 44  0  0  1  0  0  0  0  0999 V2000
   11.9325    8.2100   15.2114 C   0  0  0  0  0  0  0  0  0  0  0  0
   11.1981    9.4140   15.2694 C   0  0  0  0  0  0  0  0  0  0  0  0
    9.9029    9.3955   15.8476 C   0  0  0  0  0  0  0  0  0  0  0  0
    9.3396    8.2048   16.3620 C   0  0  0  0  0  0  0  0  0  0  0  0
   10.0994    7.0168   16.2884 C   0  0  0  0  0  0  0  0  0  0  0  0
   11.3850    7.0174   15.7187 C   0  0  0  0  0  0  0  0  0  0  0  0
   13.1827    8.1925   14.6616 O   0  0  0  0  0  0  0  0  0  0  0  0
   11.7926   10.5473   14.7526 O   0  0  0  0  0  0  0  0  0  0  0  0
   11.0732   11.7704   14.8058 C   0  0  1  0  0  0  0  0  0  0  0  0
    7.9902    8.2029   16.9622 C   0  0  0  0  0  0  0  0  0  0  0  0
    7.6235    9.1877   17.9154 C   0  0  0  0  0  0  0  0  0  0  0  0
    6.3294    9.1428   18.4576 C   0  0  0  0  0  0  0  0  0  0  0  0
    5.4073    8.1797   18.0963 C   0  0  0  0  0  0  0  0  0  0  0  0
    5.7367    7.1901   17.1549 C   0  0  0  0  0  0  0  0  0  0  0  0
    7.0349    7.2139   16.5952 C   0  0  0  0  0  0  0  0  0  0  0  0
    5.7383    9.9903   19.3960 N   0  0  0  0  0  0  0  0  0  0  0  0
    4.4665    9.6362   19.6545 C   0  0  0  0  0  0  0  0  0  0  0  0
    4.1864    8.4381   18.8536 C   0  0  0  0  0  0  0  0  0  0  0  0
    3.7225   10.2633   20.4036 O   0  0  0  0  0  0  0  0  0  0  0  0
    3.0360    7.7316   18.7982 C   0  0  0  0  0  0  0  0  0  0  0  0
    1.7922    7.8119   19.5077 C   0  0  0  0  0  0  0  0  0  0  0  0
    1.3950    9.0370   20.0052 N   0  0  0  0  0  0  0  0  0  0  0  0
    0.1982    8.9361   20.6798 C   0  0  0  0  0  0  0  0  0  0  0  0
   -0.1768    7.6241   20.6185 C   0  0  0  0  0  0  0  0  0  0  0  0
    0.8248    6.9180   19.8885 C   0  0  0  0  0  0  0  0  0  0  0  0
    9.3134   10.2978   15.8984 H   0  0  0  0  0  0  0  0  0  0  0  0
    9.7012    6.0918   16.6791 H   0  0  0  0  0  0  0  0  0  0  0  0
   11.9492    6.0974   15.6749 H   0  0  0  0  0  0  0  0  0  0  0  0
   13.4661    7.3283   14.4066 H   0  0  0  0  0  0  0  0  0  0  0  0
   11.6786   12.5624   14.3651 H   0  0  0  0  0  0  0  0  0  0  0  0
   10.1440   11.7117   14.2374 H   0  0  0  0  0  0  0  0  0  0  0  0
   10.8518   12.0589   15.8342 H   0  0  0  0  0  0  0  0  0  0  0  0
    8.3189    9.9530   18.2274 H   0  0  0  0  0  0  0  0  0  0  0  0
    5.0239    6.4329   16.8642 H   0  0  0  0  0  0  0  0  0  0  0  0
    7.2949    6.4614   15.8652 H   0  0  0  0  0  0  0  0  0  0  0  0
    6.2143   10.7862   19.7946 H   0  0  0  0  0  0  0  0  0  0  0  0
    3.0624    6.8916   18.1194 H   0  0  0  0  0  0  0  0  0  0  0  0
    1.9158    9.8951   19.8929 H   0  0  0  0  0  0  0  0  0  0  0  0
   -0.2672    9.7980   21.1350 H   0  0  0  0  0  0  0  0  0  0  0  0
   -1.0762    7.2122   21.0519 H   0  0  0  0  0  0  0  0  0  0  0  0
    0.8129    5.8641   19.6586 H   0  0  0  0  0  0  0  0  0  0  0  0
  1  2  1  0
  1  6  2  0
  1  7  1  0
  2  3  2  0
  2  8  1  0
  3  4  1  0
  3 26  1  0
  4  5  2  0
  4 10  1  0
  5  6  1  0
  5 27  1  0
  6 28  1  0
  7 29  1  0
  8  9  1  0
  9 30  1  6
  9 31  1  0
  9 32  1  0
 10 11  1  0
 10 15  2  0
 11 12  2  0
 11 33  1  0
 12 13  1  0
 12 16  1  0
 13 14  2  0
 13 18  1  0
 14 15  1  0
 14 34  1  0
 15 35  1  0
 16 17  1  0
 16 36  1  0
 17 18  1  0
 17 19  2  0
 18 20  2  0
 20 21  1  0
 20 37  1  0
 21 22  1  0
 21 25  2  0
 22 23  1  0
 22 38  1  0
 23 24  2  0
 23 39  1  0
 24 25  1  0
 24 40  1  0
 25 41  1  0
M  END
