14
     RDKit          3D

 21 22  0  0  1  0  0  0  0  0999 V2000
    3.8095  -50.1107    6.6259 O   0  0  0  0  0  0  0  0  0  0  0  0
    2.9489  -49.2039    6.5816 C   0  0  0  0  0  0  0  0  0  0  0  0
    3.2033  -47.9830    6.6909 O   0  0  0  0  0  0  0  0  0  0  0  0
    1.5355  -49.5918    6.4061 C   0  0  0  0  0  0  0  0  0  0  0  0
   -0.5785  -50.9357    6.4465 C   0  0  0  0  0  0  0  0  0  0  0  0
   -1.6346  -51.8525    6.5596 C   0  0  0  0  0  0  0  0  0  0  0  0
   -2.9169  -51.4257    6.2354 C   0  0  0  0  0  0  0  0  0  0  0  0
   -3.1440  -50.1267    5.8008 C   0  0  0  0  0  0  0  0  0  0  0  0
   -2.0985  -49.2120    5.6728 C   0  0  0  0  0  0  0  0  0  0  0  0
   -0.7807  -49.5940    6.0051 C   0  0  0  0  0  0  0  0  0  0  0  0
    0.4412  -48.8345    5.9712 C   0  0  0  0  0  0  0  0  0  0  0  0
   -1.4621  -52.8651    6.8935 H   0  0  0  0  0  0  0  0  0  0  0  0
   -3.7463  -52.1131    6.3175 H   0  0  0  0  0  0  0  0  0  0  0  0
   -4.9082  -49.6031    5.3701 Br  0  0  0  0  0  0  0  0  0  0  0  0
   -2.3146  -48.2123    5.3262 H   0  0  0  0  0  0  0  0  0  0  0  0
    0.5823  -47.8088    5.6638 H   0  0  0  0  0  0  0  0  0  0  0  0
    0.9818  -51.0595    6.7312 N   0  0  0  0  0  0  0  0  0  0  0  0
    1.7240  -52.2212    7.1775 C   0  0  1  0  0  0  0  0  0  0  0  0
    1.0235  -53.0837    7.3085 H   0  0  0  0  0  0  0  0  0  0  0  0
    2.5000  -52.4834    6.4152 H   0  0  0  0  0  0  0  0  0  0  0  0
    2.2218  -51.9934    8.1533 H   0  0  0  0  0  0  0  0  0  0  0  0
  1  2  2  0
  2  3  1  0
  2  4  1  0
  4 11  2  0
  4 17  1  0
  5  6  1  0
  5 10  2  0
  5 17  1  0
  6  7  2  0
  6 12  1  0
  7  8  1  0
  7 13  1  0
  8  9  2  0
  8 14  1  0
  9 10  1  0
  9 15  1  0
 10 11  1  0
 11 16  1  0
 17 18  1  0
 18 19  1  1
 18 20  1  0
 18 21  1  0
M  CHG  1   3  -1
M  END
