set 1: 1
     RDKit          3D

 58 62  0  0  1  0  0  0  0  0999 V2000
   -3.9572   -4.7324   10.9260 C   0  0  1  0  0  0  0  0  0  0  0  0
   -2.9057   -4.5888   12.0022 C   0  0  0  0  0  0  0  0  0  0  0  0
   -3.1970   -4.1915   13.2781 C   0  0  0  0  0  0  0  0  0  0  0  0
   -2.1362   -3.6882   14.0547 C   0  0  0  0  0  0  0  0  0  0  0  0
   -0.8577   -3.7143   13.6335 N   0  0  0  0  0  0  0  0  0  0  0  0
   -0.5948   -4.2131   12.3776 C   0  0  0  0  0  0  0  0  0  0  0  0
   -1.6270   -4.6007   11.5397 N   0  0  0  0  0  0  0  0  0  0  0  0
    0.7623   -4.2315   11.9121 N   0  0  0  0  0  0  0  0  0  0  0  0
    1.8018   -3.3186   12.4994 C   0  0  2  0  0  0  0  0  0  0  0  0
    2.9019   -3.0312   11.5568 C   0  0  2  0  0  0  0  0  0  0  0  0
    3.1240   -1.5230   11.2307 C   0  0  2  0  0  0  0  0  0  0  0  0
    2.1529   -1.2760   10.1529 N   0  0  0  0  0  0  0  0  0  0  0  0
    2.0453   -2.5149    9.2816 C   0  0  2  0  0  0  0  0  0  0  0  0
    2.3676   -3.6135   10.2478 C   0  0  2  0  0  0  0  0  0  0  0  0
    1.1704   -4.4908   10.5060 C   0  0  2  0  0  0  0  0  0  0  0  0
    1.2374   -0.2955   10.2863 C   0  0  0  0  0  0  0  0  0  0  0  0
    1.2872    0.5189   11.2493 O   0  0  0  0  0  0  0  0  0  0  0  0
    0.1829   -0.3451    9.2428 C   0  0  0  0  0  0  0  0  0  0  0  0
   -1.1964   -0.5656    9.6549 C   0  0  0  0  0  0  0  0  0  0  0  0
   -1.5785   -0.7618   10.9749 F   0  0  0  0  0  0  0  0  0  0  0  0
   -2.2132   -0.6087    8.7414 C   0  0  0  0  0  0  0  0  0  0  0  0
   -1.8601   -0.5094    7.3309 C   0  0  0  0  0  0  0  0  0  0  0  0
   -0.5320   -0.3242    6.9985 C   0  0  0  0  0  0  0  0  0  0  0  0
    0.4698   -0.0818    7.9111 C   0  0  0  0  0  0  0  0  0  0  0  0
    1.7920    0.2338    7.4004 N   0  0  0  0  0  0  0  0  0  0  0  0
    2.2460   -0.0112    6.1420 N   0  0  0  0  0  0  0  0  0  0  0  0
    3.5033    0.3363    6.1843 C   0  0  0  0  0  0  0  0  0  0  0  0
    3.7718    0.9161    7.4083 C   0  0  0  0  0  0  0  0  0  0  0  0
    2.7091    0.9351    8.1233 N   0  0  0  0  0  0  0  0  0  0  0  0
   -2.2438   -3.1615   15.5053 C   0  0  2  0  0  0  0  0  0  0  0  0
   -0.8914   -2.7158   15.9770 C   0  0  1  0  0  0  0  0  0  0  0  0
   -2.7492   -4.2556   16.3984 C   0  0  1  0  0  0  0  0  0  0  0  0
   -4.9393   -4.5163   11.3464 H   0  0  0  0  0  0  0  0  0  0  0  0
   -3.7466   -4.0333   10.1167 H   0  0  0  0  0  0  0  0  0  0  0  0
   -3.9439   -5.7512   10.5387 H   0  0  0  0  0  0  0  0  0  0  0  0
   -4.1890   -4.2766   13.6943 H   0  0  0  0  0  0  0  0  0  0  0  0
    2.2085   -3.8012   13.3891 H   0  0  0  0  0  0  0  0  0  0  0  0
    1.3311   -2.3939   12.8361 H   0  0  0  0  0  0  0  0  0  0  0  0
    3.8253   -3.4666   11.9419 H   0  0  0  0  0  0  0  0  0  0  0  0
    4.1371   -1.3423   10.8693 H   0  0  0  0  0  0  0  0  0  0  0  0
    2.9772   -0.9021   12.1171 H   0  0  0  0  0  0  0  0  0  0  0  0
    2.8015   -2.4352    8.4995 H   0  0  0  0  0  0  0  0  0  0  0  0
    1.0869   -2.6523    8.7811 H   0  0  0  0  0  0  0  0  0  0  0  0
    3.0975   -4.2758    9.7799 H   0  0  0  0  0  0  0  0  0  0  0  0
    0.3173   -4.2656    9.8642 H   0  0  0  0  0  0  0  0  0  0  0  0
    1.3887   -5.5520   10.3810 H   0  0  0  0  0  0  0  0  0  0  0  0
   -3.2347   -0.6896    9.0842 H   0  0  0  0  0  0  0  0  0  0  0  0
   -2.6297   -0.5451    6.5734 H   0  0  0  0  0  0  0  0  0  0  0  0
   -0.2541   -0.4406    5.9604 H   0  0  0  0  0  0  0  0  0  0  0  0
    4.1408    0.1784    5.3261 H   0  0  0  0  0  0  0  0  0  0  0  0
    4.6859    1.3171    7.8223 H   0  0  0  0  0  0  0  0  0  0  0  0
   -2.9350   -2.3192   15.5357 H   0  0  0  0  0  0  0  0  0  0  0  0
   -0.5241   -1.9208   15.3280 H   0  0  0  0  0  0  0  0  0  0  0  0
   -0.9672   -2.3447   16.9990 H   0  0  0  0  0  0  0  0  0  0  0  0
   -0.2002   -3.5581   15.9466 H   0  0  0  0  0  0  0  0  0  0  0  0
   -3.7319   -4.5795   16.0556 H   0  0  0  0  0  0  0  0  0  0  0  0
   -2.0580   -5.0979   16.3679 H   0  0  0  0  0  0  0  0  0  0  0  0
   -2.8250   -3.8845   17.4204 H   0  0  0  0  0  0  0  0  0  0  0  0
  1  2  1  0
  1 33  1  1
  1 34  1  0
  1 35  1  0
  2  3  2  0
  2  7  1  0
  3  4  1  0
  3 36  1  0
  4  5  2  0
  4 30  1  0
  5  6  1  0
  6  7  2  0
  6  8  1  0
  8  9  1  0
  8 15  1  0
  9 10  1  0
  9 37  1  1
  9 38  1  0
 10 11  1  0
 10 14  1  0
 10 39  1  1
 11 12  1  0
 11 40  1  6
 11 41  1  0
 12 13  1  0
 12 16  1  0
 13 14  1  0
 13 42  1  6
 13 43  1  0
 14 15  1  0
 14 44  1  6
 15 45  1  6
 15 46  1  0
 16 17  2  0
 16 18  1  0
 18 19  2  0
 18 24  1  0
 19 20  1  0
 19 21  1  0
 21 22  2  0
 21 47  1  0
 22 23  1  0
 22 48  1  0
 23 24  2  0
 23 49  1  0
 24 25  1  0
 25 26  1  0
 25 29  1  0
 26 27  2  0
 27 28  1  0
 27 50  1  0
 28 29  2  0
 28 51  1  0
 30 31  1  0
 30 32  1  0
 30 52  1  6
 31 53  1  6
 31 54  1  0
 31 55  1  0
 32 56  1  6
 32 57  1  0
 32 58  1  0
M  END
