set 2: 3
     RDKit          3D

 55 59  0  0  1  0  0  0  0  0999 V2000
   -3.4521   -4.5498   10.4414 C   0  0  1  0  0  0  0  0  0  0  0  0
   -2.5452   -4.3434   11.7168 C   0  0  0  0  0  0  0  0  0  0  0  0
   -2.9880   -3.7789   12.8374 C   0  0  0  0  0  0  0  0  0  0  0  0
   -2.0793   -3.4860   13.8719 C   0  0  0  0  0  0  0  0  0  0  0  0
   -2.6040   -2.9900   15.1628 C   0  0  1  0  0  0  0  0  0  0  0  0
   -0.7317   -3.6430   13.7057 N   0  0  0  0  0  0  0  0  0  0  0  0
   -0.3832   -4.1795   12.4588 C   0  0  0  0  0  0  0  0  0  0  0  0
   -1.2252   -4.6452   11.4854 N   0  0  0  0  0  0  0  0  0  0  0  0
    0.9938   -4.4401   12.2283 N   0  0  0  0  0  0  0  0  0  0  0  0
    1.5492   -4.9431   10.9937 C   0  0  2  0  0  0  0  0  0  0  0  0
    2.4276   -3.8446   10.4785 C   0  0  1  0  0  0  0  0  0  0  0  0
    1.6766   -2.7695    9.6818 C   0  0  2  0  0  0  0  0  0  0  0  0
    1.8348   -1.5353   10.4619 N   0  0  0  0  0  0  0  0  0  0  0  0
    2.9290   -1.7029   11.4127 C   0  0  2  0  0  0  0  0  0  0  0  0
    3.0576   -3.2335   11.7395 C   0  0  1  0  0  0  0  0  0  0  0  0
    2.0863   -3.5979   12.8323 C   0  0  2  0  0  0  0  0  0  0  0  0
    1.1302   -0.4044   10.3271 C   0  0  0  0  0  0  0  0  0  0  0  0
    1.1932    0.5615   11.0967 O   0  0  0  0  0  0  0  0  0  0  0  0
    0.0297   -0.3410    9.2547 C   0  0  0  0  0  0  0  0  0  0  0  0
   -1.2834   -0.6919    9.5792 C   0  0  0  0  0  0  0  0  0  0  0  0
   -2.3079   -0.4353    8.6899 C   0  0  0  0  0  0  0  0  0  0  0  0
   -2.0116   -0.0091    7.4296 C   0  0  0  0  0  0  0  0  0  0  0  0
   -0.7058    0.1684    6.9928 C   0  0  0  0  0  0  0  0  0  0  0  0
   -0.4776    0.6211    5.5543 C   0  0  1  0  0  0  0  0  0  0  0  0
    0.3672   -0.0475    7.8889 C   0  0  0  0  0  0  0  0  0  0  0  0
    1.7010    0.1459    7.3596 N   0  0  0  0  0  0  0  0  0  0  0  0
    2.8263    0.4352    8.0847 N   0  0  0  0  0  0  0  0  0  0  0  0
    3.7575    0.7383    7.2066 C   0  0  0  0  0  0  0  0  0  0  0  0
    3.1153    0.6085    5.9243 C   0  0  0  0  0  0  0  0  0  0  0  0
    1.8469    0.2624    6.0346 N   0  0  0  0  0  0  0  0  0  0  0  0
   -4.4649   -4.1792   10.6037 H   0  0  0  0  0  0  0  0  0  0  0  0
   -3.0318   -4.0187    9.5864 H   0  0  0  0  0  0  0  0  0  0  0  0
   -3.5168   -5.6087   10.1882 H   0  0  0  0  0  0  0  0  0  0  0  0
   -4.0321   -3.5389   12.9773 H   0  0  0  0  0  0  0  0  0  0  0  0
   -3.6923   -2.9190   15.1535 H   0  0  0  0  0  0  0  0  0  0  0  0
   -2.3166   -3.6601   15.9738 H   0  0  0  0  0  0  0  0  0  0  0  0
   -2.2041   -1.9989   15.3802 H   0  0  0  0  0  0  0  0  0  0  0  0
    0.7134   -5.1889   10.3374 H   0  0  0  0  0  0  0  0  0  0  0  0
    2.0780   -5.8738   11.2033 H   0  0  0  0  0  0  0  0  0  0  0  0
    3.2534   -4.2582    9.8973 H   0  0  0  0  0  0  0  0  0  0  0  0
    0.6677   -3.0484    9.3758 H   0  0  0  0  0  0  0  0  0  0  0  0
    2.2358   -2.6258    8.7564 H   0  0  0  0  0  0  0  0  0  0  0  0
    2.8993   -1.0835   12.3106 H   0  0  0  0  0  0  0  0  0  0  0  0
    3.8501   -1.4325   10.8947 H   0  0  0  0  0  0  0  0  0  0  0  0
    4.0874   -3.5766   11.8510 H   0  0  0  0  0  0  0  0  0  0  0  0
    2.5670   -4.1434   13.6453 H   0  0  0  0  0  0  0  0  0  0  0  0
    1.6217   -2.7292   13.3026 H   0  0  0  0  0  0  0  0  0  0  0  0
   -1.5061   -1.1716   10.5221 H   0  0  0  0  0  0  0  0  0  0  0  0
   -3.3346   -0.5753    8.9944 H   0  0  0  0  0  0  0  0  0  0  0  0
   -2.8195    0.2007    6.7436 H   0  0  0  0  0  0  0  0  0  0  0  0
    0.1989    1.4759    5.5280 H   0  0  0  0  0  0  0  0  0  0  0  0
   -0.0232   -0.1797    4.9707 H   0  0  0  0  0  0  0  0  0  0  0  0
   -1.4032    0.9286    5.0662 H   0  0  0  0  0  0  0  0  0  0  0  0
    4.7635    1.0132    7.4878 H   0  0  0  0  0  0  0  0  0  0  0  0
    3.5569    0.7612    4.9506 H   0  0  0  0  0  0  0  0  0  0  0  0
  1  2  1  0
  1 31  1  1
  1 32  1  0
  1 33  1  0
  2  3  2  0
  2  8  1  0
  3  4  1  0
  3 34  1  0
  4  5  1  0
  4  6  2  0
  5 35  1  6
  5 36  1  0
  5 37  1  0
  6  7  1  0
  7  8  2  0
  7  9  1  0
  9 10  1  0
  9 16  1  0
 10 11  1  0
 10 38  1  6
 10 39  1  0
 11 12  1  0
 11 15  1  0
 11 40  1  6
 12 13  1  0
 12 41  1  6
 12 42  1  0
 13 14  1  0
 13 17  1  0
 14 15  1  0
 14 43  1  1
 14 44  1  0
 15 16  1  0
 15 45  1  1
 16 46  1  1
 16 47  1  0
 17 18  2  0
 17 19  1  0
 19 20  2  0
 19 25  1  0
 20 21  1  0
 20 48  1  0
 21 22  2  0
 21 49  1  0
 22 23  1  0
 22 50  1  0
 23 24  1  0
 23 25  2  0
 24 51  1  1
 24 52  1  0
 24 53  1  0
 25 26  1  0
 26 27  1  0
 26 30  1  0
 27 28  2  0
 28 29  1  0
 28 54  1  0
 29 30  2  0
 29 55  1  0
M  END
