set 2: 10
     RDKit          3D

 60 64  0  0  1  0  0  0  0  0999 V2000
   -4.0215   -1.0557   10.2925 C   0  0  1  0  0  0  0  0  0  0  0  0
   -3.6481   -0.5926    8.9990 O   0  0  0  0  0  0  0  0  0  0  0  0
   -2.3079   -0.4353    8.6899 C   0  0  0  0  0  0  0  0  0  0  0  0
   -1.2834   -0.6919    9.5792 C   0  0  0  0  0  0  0  0  0  0  0  0
    0.0297   -0.3410    9.2547 C   0  0  0  0  0  0  0  0  0  0  0  0
    1.1302   -0.4044   10.3271 C   0  0  0  0  0  0  0  0  0  0  0  0
    1.1932    0.5615   11.0967 O   0  0  0  0  0  0  0  0  0  0  0  0
    1.8348   -1.5353   10.4619 N   0  0  0  0  0  0  0  0  0  0  0  0
    2.9290   -1.7029   11.4127 C   0  0  2  0  0  0  0  0  0  0  0  0
    3.0576   -3.2335   11.7395 C   0  0  1  0  0  0  0  0  0  0  0  0
    2.0863   -3.5979   12.8323 C   0  0  2  0  0  0  0  0  0  0  0  0
    0.9938   -4.4401   12.2283 N   0  0  0  0  0  0  0  0  0  0  0  0
    1.5492   -4.9431   10.9937 C   0  0  2  0  0  0  0  0  0  0  0  0
    2.4276   -3.8446   10.4785 C   0  0  1  0  0  0  0  0  0  0  0  0
    1.6766   -2.7695    9.6818 C   0  0  2  0  0  0  0  0  0  0  0  0
   -0.3832   -4.1795   12.4588 C   0  0  0  0  0  0  0  0  0  0  0  0
   -1.2252   -4.6452   11.4854 N   0  0  0  0  0  0  0  0  0  0  0  0
   -2.5452   -4.3434   11.7168 C   0  0  0  0  0  0  0  0  0  0  0  0
   -3.4521   -4.5498   10.4414 C   0  0  1  0  0  0  0  0  0  0  0  0
   -2.9880   -3.7789   12.8374 C   0  0  0  0  0  0  0  0  0  0  0  0
   -2.0793   -3.4860   13.8719 C   0  0  0  0  0  0  0  0  0  0  0  0
   -2.6040   -2.9900   15.1628 C   0  0  1  0  0  0  0  0  0  0  0  0
   -0.7317   -3.6430   13.7057 N   0  0  0  0  0  0  0  0  0  0  0  0
    0.3672   -0.0475    7.8889 C   0  0  0  0  0  0  0  0  0  0  0  0
   -0.7058    0.1684    6.9928 C   0  0  0  0  0  0  0  0  0  0  0  0
   -2.0116   -0.0091    7.4296 C   0  0  0  0  0  0  0  0  0  0  0  0
   -3.0784    0.2473    6.5856 O   0  0  0  0  0  0  0  0  0  0  0  0
   -2.8320    0.6903    5.2554 C   0  0  1  0  0  0  0  0  0  0  0  0
    1.7010    0.1459    7.3596 N   0  0  0  0  0  0  0  0  0  0  0  0
    2.8263    0.4352    8.0847 N   0  0  0  0  0  0  0  0  0  0  0  0
    3.7575    0.7383    7.2066 C   0  0  0  0  0  0  0  0  0  0  0  0
    3.1153    0.6085    5.9243 C   0  0  0  0  0  0  0  0  0  0  0  0
    1.8469    0.2624    6.0346 N   0  0  0  0  0  0  0  0  0  0  0  0
   -5.1075   -1.1260   10.3491 H   0  0  0  0  0  0  0  0  0  0  0  0
   -3.6162   -2.0484   10.4954 H   0  0  0  0  0  0  0  0  0  0  0  0
   -3.6946   -0.3678   11.0735 H   0  0  0  0  0  0  0  0  0  0  0  0
   -1.4957   -1.1831   10.5176 H   0  0  0  0  0  0  0  0  0  0  0  0
    2.9095   -1.0786   12.3076 H   0  0  0  0  0  0  0  0  0  0  0  0
    3.8484   -1.4349   10.8902 H   0  0  0  0  0  0  0  0  0  0  0  0
    4.0882   -3.5039   11.9752 H   0  0  0  0  0  0  0  0  0  0  0  0
    1.6257   -2.7246   13.2980 H   0  0  0  0  0  0  0  0  0  0  0  0
    2.5733   -4.1438   13.6413 H   0  0  0  0  0  0  0  0  0  0  0  0
    0.7178   -5.2100   10.3388 H   0  0  0  0  0  0  0  0  0  0  0  0
    2.0812   -5.8751   11.1884 H   0  0  0  0  0  0  0  0  0  0  0  0
    3.2072   -4.2366    9.8233 H   0  0  0  0  0  0  0  0  0  0  0  0
    2.2211   -2.6260    8.7475 H   0  0  0  0  0  0  0  0  0  0  0  0
    0.6665   -3.0551    9.3873 H   0  0  0  0  0  0  0  0  0  0  0  0
   -4.5007   -4.3407   10.6559 H   0  0  0  0  0  0  0  0  0  0  0  0
   -3.1328   -3.8855    9.6376 H   0  0  0  0  0  0  0  0  0  0  0  0
   -3.3802   -5.5779   10.0847 H   0  0  0  0  0  0  0  0  0  0  0  0
   -4.0322   -3.5385   12.9775 H   0  0  0  0  0  0  0  0  0  0  0  0
   -3.6933   -2.9334   15.1585 H   0  0  0  0  0  0  0  0  0  0  0  0
   -2.3052   -3.6527   15.9759 H   0  0  0  0  0  0  0  0  0  0  0  0
   -2.2149   -1.9931   15.3734 H   0  0  0  0  0  0  0  0  0  0  0  0
   -0.4790    0.4791    5.9837 H   0  0  0  0  0  0  0  0  0  0  0  0
   -3.7829    0.8354    4.7432 H   0  0  0  0  0  0  0  0  0  0  0  0
   -2.3020    1.6438    5.2425 H   0  0  0  0  0  0  0  0  0  0  0  0
   -2.2612   -0.0464    4.6881 H   0  0  0  0  0  0  0  0  0  0  0  0
    4.7639    1.0123    7.4873 H   0  0  0  0  0  0  0  0  0  0  0  0
    3.5580    0.7587    4.9506 H   0  0  0  0  0  0  0  0  0  0  0  0
  1  2  1  0
  1 34  1  6
  1 35  1  0
  1 36  1  0
  2  3  1  0
  3  4  2  0
  3 26  1  0
  4  5  1  0
  4 37  1  0
  5  6  1  0
  5 24  2  0
  6  7  2  0
  6  8  1  0
  8  9  1  0
  8 15  1  0
  9 10  1  0
  9 38  1  1
  9 39  1  0
 10 11  1  0
 10 14  1  0
 10 40  1  1
 11 12  1  0
 11 41  1  1
 11 42  1  0
 12 13  1  0
 12 16  1  0
 13 14  1  0
 13 43  1  6
 13 44  1  0
 14 15  1  0
 14 45  1  6
 15 46  1  6
 15 47  1  0
 16 17  2  0
 16 23  1  0
 17 18  1  0
 18 19  1  0
 18 20  2  0
 19 48  1  1
 19 49  1  0
 19 50  1  0
 20 21  1  0
 20 51  1  0
 21 22  1  0
 21 23  2  0
 22 52  1  6
 22 53  1  0
 22 54  1  0
 24 25  1  0
 24 29  1  0
 25 26  2  0
 25 55  1  0
 26 27  1  0
 27 28  1  0
 28 56  1  6
 28 57  1  0
 28 58  1  0
 29 30  1  0
 29 33  1  0
 30 31  2  0
 31 32  1  0
 31 59  1  0
 32 33  2  0
 32 60  1  0
M  END
