set 2: 1
     RDKit          3D

 52 56  0  0  1  0  0  0  0  0999 V2000
   -3.4521   -4.5498   10.4414 C   0  0  1  0  0  0  0  0  0  0  0  0
   -2.5452   -4.3434   11.7168 C   0  0  0  0  0  0  0  0  0  0  0  0
   -2.9880   -3.7789   12.8374 C   0  0  0  0  0  0  0  0  0  0  0  0
   -2.0793   -3.4860   13.8719 C   0  0  0  0  0  0  0  0  0  0  0  0
   -2.6040   -2.9900   15.1628 C   0  0  1  0  0  0  0  0  0  0  0  0
   -0.7317   -3.6430   13.7057 N   0  0  0  0  0  0  0  0  0  0  0  0
   -0.3832   -4.1795   12.4588 C   0  0  0  0  0  0  0  0  0  0  0  0
   -1.2252   -4.6452   11.4854 N   0  0  0  0  0  0  0  0  0  0  0  0
    0.9938   -4.4401   12.2283 N   0  0  0  0  0  0  0  0  0  0  0  0
    1.5492   -4.9431   10.9937 C   0  0  2  0  0  0  0  0  0  0  0  0
    2.4276   -3.8446   10.4785 C   0  0  1  0  0  0  0  0  0  0  0  0
    1.6766   -2.7695    9.6818 C   0  0  2  0  0  0  0  0  0  0  0  0
    1.8348   -1.5353   10.4619 N   0  0  0  0  0  0  0  0  0  0  0  0
    2.9290   -1.7029   11.4127 C   0  0  2  0  0  0  0  0  0  0  0  0
    3.0576   -3.2335   11.7395 C   0  0  1  0  0  0  0  0  0  0  0  0
    2.0863   -3.5979   12.8323 C   0  0  2  0  0  0  0  0  0  0  0  0
    1.1302   -0.4044   10.3271 C   0  0  0  0  0  0  0  0  0  0  0  0
    1.1932    0.5615   11.0967 O   0  0  0  0  0  0  0  0  0  0  0  0
    0.0297   -0.3410    9.2547 C   0  0  0  0  0  0  0  0  0  0  0  0
   -1.2834   -0.6919    9.5792 C   0  0  0  0  0  0  0  0  0  0  0  0
   -2.3079   -0.4353    8.6899 C   0  0  0  0  0  0  0  0  0  0  0  0
   -3.5902   -0.5929    9.0930 F   0  0  0  0  0  0  0  0  0  0  0  0
   -2.0116   -0.0091    7.4296 C   0  0  0  0  0  0  0  0  0  0  0  0
   -0.7058    0.1684    6.9928 C   0  0  0  0  0  0  0  0  0  0  0  0
    0.3672   -0.0475    7.8889 C   0  0  0  0  0  0  0  0  0  0  0  0
    1.7010    0.1459    7.3596 N   0  0  0  0  0  0  0  0  0  0  0  0
    2.8263    0.4352    8.0847 N   0  0  0  0  0  0  0  0  0  0  0  0
    3.7575    0.7383    7.2066 C   0  0  0  0  0  0  0  0  0  0  0  0
    3.1153    0.6085    5.9243 C   0  0  0  0  0  0  0  0  0  0  0  0
    1.8469    0.2624    6.0346 N   0  0  0  0  0  0  0  0  0  0  0  0
   -3.3320   -5.5583   10.0450 H   0  0  0  0  0  0  0  0  0  0  0  0
   -4.5054   -4.3994   10.6764 H   0  0  0  0  0  0  0  0  0  0  0  0
   -3.1673   -3.8387    9.6658 H   0  0  0  0  0  0  0  0  0  0  0  0
   -4.0301   -3.5585   13.0155 H   0  0  0  0  0  0  0  0  0  0  0  0
   -2.4178   -3.7207   15.9497 H   0  0  0  0  0  0  0  0  0  0  0  0
   -2.1114   -2.0564   15.4350 H   0  0  0  0  0  0  0  0  0  0  0  0
   -3.6768   -2.8087   15.1045 H   0  0  0  0  0  0  0  0  0  0  0  0
    0.7648   -5.2026   10.2815 H   0  0  0  0  0  0  0  0  0  0  0  0
    2.1243   -5.8456   11.2039 H   0  0  0  0  0  0  0  0  0  0  0  0
    3.2328   -4.2906    9.8929 H   0  0  0  0  0  0  0  0  0  0  0  0
    0.6340   -3.0493    9.5246 H   0  0  0  0  0  0  0  0  0  0  0  0
    2.1269   -2.6359    8.6972 H   0  0  0  0  0  0  0  0  0  0  0  0
    2.7558   -1.1178   12.3174 H   0  0  0  0  0  0  0  0  0  0  0  0
    3.8460   -1.3303   10.9545 H   0  0  0  0  0  0  0  0  0  0  0  0
    4.1016   -3.5269   11.8580 H   0  0  0  0  0  0  0  0  0  0  0  0
    2.5716   -4.1838   13.6142 H   0  0  0  0  0  0  0  0  0  0  0  0
    1.6741   -2.7117   13.3174 H   0  0  0  0  0  0  0  0  0  0  0  0
   -1.4863   -1.1318   10.5452 H   0  0  0  0  0  0  0  0  0  0  0  0
   -2.7918    0.2303    6.7226 H   0  0  0  0  0  0  0  0  0  0  0  0
   -0.5821    0.4331    5.9533 H   0  0  0  0  0  0  0  0  0  0  0  0
    4.7120    1.1411    7.5131 H   0  0  0  0  0  0  0  0  0  0  0  0
    3.5556    0.5359    4.9403 H   0  0  0  0  0  0  0  0  0  0  0  0
  1  2  1  0
  1 31  1  6
  1 32  1  0
  1 33  1  0
  2  3  2  0
  2  8  1  0
  3  4  1  0
  3 34  1  0
  4  5  1  0
  4  6  2  0
  5 35  1  1
  5 36  1  0
  5 37  1  0
  6  7  1  0
  7  8  2  0
  7  9  1  0
  9 10  1  0
  9 16  1  0
 10 11  1  0
 10 38  1  6
 10 39  1  0
 11 12  1  0
 11 15  1  0
 11 40  1  6
 12 13  1  0
 12 41  1  6
 12 42  1  0
 13 14  1  0
 13 17  1  0
 14 15  1  0
 14 43  1  1
 14 44  1  0
 15 16  1  0
 15 45  1  1
 16 46  1  1
 16 47  1  0
 17 18  2  0
 17 19  1  0
 19 20  2  0
 19 25  1  0
 20 21  1  0
 20 48  1  0
 21 22  1  0
 21 23  2  0
 23 24  1  0
 23 49  1  0
 24 25  2  0
 24 50  1  0
 25 26  1  0
 26 27  1  0
 26 30  1  0
 27 28  2  0
 28 29  1  0
 28 51  1  0
 29 30  2  0
 29 52  1  0
M  END
