set 1: 24
     RDKit          3D

 53 57  0  0  1  0  0  0  0  0999 V2000
   -2.3332   -3.8851   15.6262 C   0  0  1  0  0  0  0  0  0  0  0  0
   -2.1685   -3.9023   14.1237 C   0  0  0  0  0  0  0  0  0  0  0  0
   -0.8756   -3.9276   13.7033 N   0  0  0  0  0  0  0  0  0  0  0  0
   -0.5948   -4.2131   12.3776 C   0  0  0  0  0  0  0  0  0  0  0  0
   -1.5984   -4.5771   11.5085 N   0  0  0  0  0  0  0  0  0  0  0  0
   -2.8668   -4.5702   11.9600 C   0  0  0  0  0  0  0  0  0  0  0  0
   -3.8684   -4.9395   10.8402 C   0  0  1  0  0  0  0  0  0  0  0  0
   -3.2009   -4.1634   13.2655 C   0  0  0  0  0  0  0  0  0  0  0  0
   -4.5109   -4.1819   13.6991 O   0  0  0  0  0  0  0  0  0  0  0  0
    0.7623   -4.2315   11.9120 N   0  0  0  0  0  0  0  0  0  0  0  0
    1.8018   -3.3186   12.4994 C   0  0  2  0  0  0  0  0  0  0  0  0
    2.9019   -3.0312   11.5568 C   0  0  2  0  0  0  0  0  0  0  0  0
    3.1240   -1.5230   11.2307 C   0  0  2  0  0  0  0  0  0  0  0  0
    2.1529   -1.2760   10.1529 N   0  0  0  0  0  0  0  0  0  0  0  0
    2.0453   -2.5149    9.2816 C   0  0  2  0  0  0  0  0  0  0  0  0
    2.3676   -3.6135   10.2478 C   0  0  2  0  0  0  0  0  0  0  0  0
    1.1704   -4.4908   10.5060 C   0  0  2  0  0  0  0  0  0  0  0  0
    1.2374   -0.2955   10.2863 C   0  0  0  0  0  0  0  0  0  0  0  0
    1.2872    0.5189   11.2493 O   0  0  0  0  0  0  0  0  0  0  0  0
    0.1829   -0.3451    9.2428 C   0  0  0  0  0  0  0  0  0  0  0  0
   -1.1964   -0.5656    9.6549 C   0  0  0  0  0  0  0  0  0  0  0  0
   -1.5785   -0.7618   10.9749 F   0  0  0  0  0  0  0  0  0  0  0  0
   -2.2132   -0.6087    8.7414 C   0  0  0  0  0  0  0  0  0  0  0  0
   -1.8601   -0.5094    7.3309 C   0  0  0  0  0  0  0  0  0  0  0  0
   -0.5320   -0.3242    6.9985 C   0  0  0  0  0  0  0  0  0  0  0  0
    0.4698   -0.0818    7.9111 C   0  0  0  0  0  0  0  0  0  0  0  0
    1.7920    0.2338    7.4004 N   0  0  0  0  0  0  0  0  0  0  0  0
    2.2460   -0.0112    6.1420 N   0  0  0  0  0  0  0  0  0  0  0  0
    3.5033    0.3363    6.1843 C   0  0  0  0  0  0  0  0  0  0  0  0
    3.7718    0.9161    7.4083 C   0  0  0  0  0  0  0  0  0  0  0  0
    2.7091    0.9351    8.1233 N   0  0  0  0  0  0  0  0  0  0  0  0
   -1.7186   -3.0980   16.0636 H   0  0  0  0  0  0  0  0  0  0  0  0
   -3.3706   -3.7020   15.9043 H   0  0  0  0  0  0  0  0  0  0  0  0
   -2.0222   -4.8402   16.0489 H   0  0  0  0  0  0  0  0  0  0  0  0
   -4.5610   -4.1150   10.6747 H   0  0  0  0  0  0  0  0  0  0  0  0
   -3.3637   -5.1554    9.8976 H   0  0  0  0  0  0  0  0  0  0  0  0
   -4.4410   -5.8200   11.1294 H   0  0  0  0  0  0  0  0  0  0  0  0
   -4.6365   -3.9922   14.6729 H   0  0  0  0  0  0  0  0  0  0  0  0
    2.1860   -3.7681   13.4157 H   0  0  0  0  0  0  0  0  0  0  0  0
    1.3033   -2.3958   12.8025 H   0  0  0  0  0  0  0  0  0  0  0  0
    3.8209   -3.5231   11.8787 H   0  0  0  0  0  0  0  0  0  0  0  0
    4.1252   -1.3557   10.8331 H   0  0  0  0  0  0  0  0  0  0  0  0
    3.0218   -0.9024   12.1229 H   0  0  0  0  0  0  0  0  0  0  0  0
    2.8044   -2.4481    8.5012 H   0  0  0  0  0  0  0  0  0  0  0  0
    1.0860   -2.6522    8.7840 H   0  0  0  0  0  0  0  0  0  0  0  0
    3.1431   -4.2321    9.7929 H   0  0  0  0  0  0  0  0  0  0  0  0
    0.3396   -4.3241    9.8199 H   0  0  0  0  0  0  0  0  0  0  0  0
    1.4400   -5.5441   10.4258 H   0  0  0  0  0  0  0  0  0  0  0  0
   -3.2339   -0.7675    9.0576 H   0  0  0  0  0  0  0  0  0  0  0  0
   -2.6169   -0.5965    6.5647 H   0  0  0  0  0  0  0  0  0  0  0  0
   -0.2999   -0.2406    5.9458 H   0  0  0  0  0  0  0  0  0  0  0  0
    4.1543    0.2028    5.3322 H   0  0  0  0  0  0  0  0  0  0  0  0
    4.6916    1.3565    7.7657 H   0  0  0  0  0  0  0  0  0  0  0  0
  1  2  1  0
  1 32  1  1
  1 33  1  0
  1 34  1  0
  2  3  2  0
  2  8  1  0
  3  4  1  0
  4  5  2  0
  4 10  1  0
  5  6  1  0
  6  7  1  0
  6  8  2  0
  7 35  1  6
  7 36  1  0
  7 37  1  0
  8  9  1  0
  9 38  1  0
 10 11  1  0
 10 17  1  0
 11 12  1  0
 11 39  1  1
 11 40  1  0
 12 13  1  0
 12 16  1  0
 12 41  1  1
 13 14  1  0
 13 42  1  6
 13 43  1  0
 14 15  1  0
 14 18  1  0
 15 16  1  0
 15 44  1  6
 15 45  1  0
 16 17  1  0
 16 46  1  6
 17 47  1  6
 17 48  1  0
 18 19  2  0
 18 20  1  0
 20 21  2  0
 20 26  1  0
 21 22  1  0
 21 23  1  0
 23 24  2  0
 23 49  1  0
 24 25  1  0
 24 50  1  0
 25 26  2  0
 25 51  1  0
 26 27  1  0
 27 28  1  0
 27 31  1  0
 28 29  2  0
 29 30  1  0
 29 52  1  0
 30 31  2  0
 30 53  1  0
M  END
