set 1: 12
     RDKit          3D

 49 53  0  0  1  0  0  0  0  0999 V2000
   -3.9572   -4.7324   10.9260 C   0  0  1  0  0  0  0  0  0  0  0  0
   -2.9057   -4.5888   12.0022 C   0  0  0  0  0  0  0  0  0  0  0  0
   -1.6270   -4.6007   11.5397 N   0  0  0  0  0  0  0  0  0  0  0  0
   -0.5948   -4.2131   12.3776 C   0  0  0  0  0  0  0  0  0  0  0  0
   -0.8577   -3.7143   13.6335 N   0  0  0  0  0  0  0  0  0  0  0  0
   -2.1362   -3.6882   14.0547 C   0  0  0  0  0  0  0  0  0  0  0  0
   -3.1970   -4.1915   13.2781 C   0  0  0  0  0  0  0  0  0  0  0  0
   -4.4526   -4.2479   13.7827 F   0  0  0  0  0  0  0  0  0  0  0  0
    0.7623   -4.2315   11.9121 N   0  0  0  0  0  0  0  0  0  0  0  0
    1.8018   -3.3186   12.4994 C   0  0  2  0  0  0  0  0  0  0  0  0
    2.9019   -3.0312   11.5568 C   0  0  2  0  0  0  0  0  0  0  0  0
    3.1240   -1.5230   11.2307 C   0  0  2  0  0  0  0  0  0  0  0  0
    2.1529   -1.2760   10.1529 N   0  0  0  0  0  0  0  0  0  0  0  0
    2.0453   -2.5149    9.2816 C   0  0  2  0  0  0  0  0  0  0  0  0
    2.3676   -3.6135   10.2478 C   0  0  2  0  0  0  0  0  0  0  0  0
    1.1704   -4.4908   10.5060 C   0  0  2  0  0  0  0  0  0  0  0  0
    1.2374   -0.2955   10.2863 C   0  0  0  0  0  0  0  0  0  0  0  0
    1.2872    0.5189   11.2493 O   0  0  0  0  0  0  0  0  0  0  0  0
    0.1829   -0.3451    9.2428 C   0  0  0  0  0  0  0  0  0  0  0  0
   -1.1964   -0.5656    9.6549 C   0  0  0  0  0  0  0  0  0  0  0  0
   -1.5785   -0.7618   10.9749 F   0  0  0  0  0  0  0  0  0  0  0  0
   -2.2132   -0.6087    8.7414 C   0  0  0  0  0  0  0  0  0  0  0  0
   -1.8601   -0.5094    7.3309 C   0  0  0  0  0  0  0  0  0  0  0  0
   -0.5320   -0.3242    6.9985 C   0  0  0  0  0  0  0  0  0  0  0  0
    0.4698   -0.0818    7.9111 C   0  0  0  0  0  0  0  0  0  0  0  0
    1.7920    0.2338    7.4004 N   0  0  0  0  0  0  0  0  0  0  0  0
    2.2460   -0.0112    6.1420 N   0  0  0  0  0  0  0  0  0  0  0  0
    3.5033    0.3363    6.1843 C   0  0  0  0  0  0  0  0  0  0  0  0
    3.7718    0.9161    7.4083 C   0  0  0  0  0  0  0  0  0  0  0  0
    2.7091    0.9351    8.1233 N   0  0  0  0  0  0  0  0  0  0  0  0
   -4.9476   -4.7130   11.3807 H   0  0  0  0  0  0  0  0  0  0  0  0
   -3.8666   -3.9092   10.2173 H   0  0  0  0  0  0  0  0  0  0  0  0
   -3.8157   -5.6786   10.4037 H   0  0  0  0  0  0  0  0  0  0  0  0
   -2.3064   -3.2967   15.0466 H   0  0  0  0  0  0  0  0  0  0  0  0
    2.2094   -3.8010   13.3889 H   0  0  0  0  0  0  0  0  0  0  0  0
    1.3321   -2.3934   12.8363 H   0  0  0  0  0  0  0  0  0  0  0  0
    3.8255   -3.4664   11.9418 H   0  0  0  0  0  0  0  0  0  0  0  0
    4.1369   -1.3424   10.8687 H   0  0  0  0  0  0  0  0  0  0  0  0
    2.9779   -0.9017   12.1170 H   0  0  0  0  0  0  0  0  0  0  0  0
    2.8018   -2.4350    8.4997 H   0  0  0  0  0  0  0  0  0  0  0  0
    1.0873   -2.6522    8.7804 H   0  0  0  0  0  0  0  0  0  0  0  0
    3.0977   -4.2755    9.7797 H   0  0  0  0  0  0  0  0  0  0  0  0
    0.3179   -4.2656    9.8633 H   0  0  0  0  0  0  0  0  0  0  0  0
    1.3895   -5.5518   10.3804 H   0  0  0  0  0  0  0  0  0  0  0  0
   -3.2348   -0.6896    9.0839 H   0  0  0  0  0  0  0  0  0  0  0  0
   -2.6297   -0.5448    6.5733 H   0  0  0  0  0  0  0  0  0  0  0  0
   -0.2541   -0.4403    5.9601 H   0  0  0  0  0  0  0  0  0  0  0  0
    4.1408    0.1784    5.3261 H   0  0  0  0  0  0  0  0  0  0  0  0
    4.6859    1.3171    7.8223 H   0  0  0  0  0  0  0  0  0  0  0  0
  1  2  1  0
  1 31  1  1
  1 32  1  0
  1 33  1  0
  2  3  2  0
  2  7  1  0
  3  4  1  0
  4  5  2  0
  4  9  1  0
  5  6  1  0
  6  7  2  0
  6 34  1  0
  7  8  1  0
  9 10  1  0
  9 16  1  0
 10 11  1  0
 10 35  1  1
 10 36  1  0
 11 12  1  0
 11 15  1  0
 11 37  1  1
 12 13  1  0
 12 38  1  6
 12 39  1  0
 13 14  1  0
 13 17  1  0
 14 15  1  0
 14 40  1  6
 14 41  1  0
 15 16  1  0
 15 42  1  6
 16 43  1  6
 16 44  1  0
 17 18  2  0
 17 19  1  0
 19 20  2  0
 19 25  1  0
 20 21  1  0
 20 22  1  0
 22 23  2  0
 22 45  1  0
 23 24  1  0
 23 46  1  0
 24 25  2  0
 24 47  1  0
 25 26  1  0
 26 27  1  0
 26 30  1  0
 27 28  2  0
 28 29  1  0
 28 48  1  0
 29 30  2  0
 29 49  1  0
M  END
