set 1: 25
     RDKit          3D

 56 60  0  0  1  0  0  0  0  0999 V2000
   -5.2159   -3.0174   13.4777 C   0  0  1  0  0  0  0  0  0  0  0  0
   -4.5109   -4.1830   13.6989 O   0  0  0  0  0  0  0  0  0  0  0  0
   -3.2009   -4.1634   13.2655 C   0  0  0  0  0  0  0  0  0  0  0  0
   -2.1685   -3.9023   14.1237 C   0  0  0  0  0  0  0  0  0  0  0  0
   -2.3332   -3.8851   15.6262 C   0  0  1  0  0  0  0  0  0  0  0  0
   -0.8756   -3.9276   13.7033 N   0  0  0  0  0  0  0  0  0  0  0  0
   -0.5948   -4.2131   12.3776 C   0  0  0  0  0  0  0  0  0  0  0  0
   -1.5984   -4.5771   11.5085 N   0  0  0  0  0  0  0  0  0  0  0  0
   -2.8668   -4.5702   11.9600 C   0  0  0  0  0  0  0  0  0  0  0  0
   -3.8684   -4.9395   10.8402 C   0  0  1  0  0  0  0  0  0  0  0  0
    0.7623   -4.2315   11.9120 N   0  0  0  0  0  0  0  0  0  0  0  0
    1.8018   -3.3186   12.4994 C   0  0  2  0  0  0  0  0  0  0  0  0
    2.9019   -3.0312   11.5568 C   0  0  2  0  0  0  0  0  0  0  0  0
    3.1240   -1.5230   11.2307 C   0  0  2  0  0  0  0  0  0  0  0  0
    2.1529   -1.2760   10.1529 N   0  0  0  0  0  0  0  0  0  0  0  0
    2.0453   -2.5149    9.2816 C   0  0  2  0  0  0  0  0  0  0  0  0
    2.3676   -3.6135   10.2478 C   0  0  2  0  0  0  0  0  0  0  0  0
    1.1704   -4.4908   10.5060 C   0  0  2  0  0  0  0  0  0  0  0  0
    1.2374   -0.2955   10.2863 C   0  0  0  0  0  0  0  0  0  0  0  0
    1.2872    0.5189   11.2493 O   0  0  0  0  0  0  0  0  0  0  0  0
    0.1829   -0.3451    9.2428 C   0  0  0  0  0  0  0  0  0  0  0  0
   -1.1964   -0.5656    9.6549 C   0  0  0  0  0  0  0  0  0  0  0  0
   -1.5785   -0.7618   10.9749 F   0  0  0  0  0  0  0  0  0  0  0  0
   -2.2132   -0.6087    8.7414 C   0  0  0  0  0  0  0  0  0  0  0  0
   -1.8601   -0.5094    7.3309 C   0  0  0  0  0  0  0  0  0  0  0  0
   -0.5320   -0.3242    6.9985 C   0  0  0  0  0  0  0  0  0  0  0  0
    0.4698   -0.0818    7.9111 C   0  0  0  0  0  0  0  0  0  0  0  0
    1.7920    0.2338    7.4004 N   0  0  0  0  0  0  0  0  0  0  0  0
    2.7091    0.9351    8.1233 N   0  0  0  0  0  0  0  0  0  0  0  0
    3.7718    0.9161    7.4083 C   0  0  0  0  0  0  0  0  0  0  0  0
    3.5033    0.3363    6.1843 C   0  0  0  0  0  0  0  0  0  0  0  0
    2.2460   -0.0112    6.1420 N   0  0  0  0  0  0  0  0  0  0  0  0
   -6.2331   -3.1313   13.8524 H   0  0  0  0  0  0  0  0  0  0  0  0
   -4.7274   -2.1931   13.9973 H   0  0  0  0  0  0  0  0  0  0  0  0
   -5.2439   -2.8072   12.4085 H   0  0  0  0  0  0  0  0  0  0  0  0
   -1.7186   -3.0980   16.0636 H   0  0  0  0  0  0  0  0  0  0  0  0
   -3.3706   -3.7020   15.9043 H   0  0  0  0  0  0  0  0  0  0  0  0
   -2.0222   -4.8402   16.0489 H   0  0  0  0  0  0  0  0  0  0  0  0
   -4.5610   -4.1150   10.6747 H   0  0  0  0  0  0  0  0  0  0  0  0
   -3.3637   -5.1554    9.8976 H   0  0  0  0  0  0  0  0  0  0  0  0
   -4.4410   -5.8200   11.1294 H   0  0  0  0  0  0  0  0  0  0  0  0
    2.1860   -3.7681   13.4157 H   0  0  0  0  0  0  0  0  0  0  0  0
    1.3033   -2.3958   12.8025 H   0  0  0  0  0  0  0  0  0  0  0  0
    3.8209   -3.5231   11.8787 H   0  0  0  0  0  0  0  0  0  0  0  0
    4.1252   -1.3557   10.8331 H   0  0  0  0  0  0  0  0  0  0  0  0
    3.0218   -0.9024   12.1229 H   0  0  0  0  0  0  0  0  0  0  0  0
    2.8044   -2.4481    8.5012 H   0  0  0  0  0  0  0  0  0  0  0  0
    1.0860   -2.6522    8.7839 H   0  0  0  0  0  0  0  0  0  0  0  0
    3.1431   -4.2321    9.7929 H   0  0  0  0  0  0  0  0  0  0  0  0
    0.3396   -4.3241    9.8199 H   0  0  0  0  0  0  0  0  0  0  0  0
    1.4400   -5.5441   10.4258 H   0  0  0  0  0  0  0  0  0  0  0  0
   -3.2339   -0.7675    9.0576 H   0  0  0  0  0  0  0  0  0  0  0  0
   -2.6169   -0.5965    6.5647 H   0  0  0  0  0  0  0  0  0  0  0  0
   -0.2999   -0.2406    5.9458 H   0  0  0  0  0  0  0  0  0  0  0  0
    4.6916    1.3565    7.7657 H   0  0  0  0  0  0  0  0  0  0  0  0
    4.1543    0.2028    5.3322 H   0  0  0  0  0  0  0  0  0  0  0  0
  1  2  1  0
  1 33  1  1
  1 34  1  0
  1 35  1  0
  2  3  1  0
  3  4  2  0
  3  9  1  0
  4  5  1  0
  4  6  1  0
  5 36  1  1
  5 37  1  0
  5 38  1  0
  6  7  2  0
  7  8  1  0
  7 11  1  0
  8  9  2  0
  9 10  1  0
 10 39  1  6
 10 40  1  0
 10 41  1  0
 11 12  1  0
 11 18  1  0
 12 13  1  0
 12 42  1  1
 12 43  1  0
 13 14  1  0
 13 17  1  0
 13 44  1  1
 14 15  1  0
 14 45  1  6
 14 46  1  0
 15 16  1  0
 15 19  1  0
 16 17  1  0
 16 47  1  6
 16 48  1  0
 17 18  1  0
 17 49  1  6
 18 50  1  6
 18 51  1  0
 19 20  2  0
 19 21  1  0
 21 22  2  0
 21 27  1  0
 22 23  1  0
 22 24  1  0
 24 25  2  0
 24 52  1  0
 25 26  1  0
 25 53  1  0
 26 27  2  0
 26 54  1  0
 27 28  1  0
 28 29  1  0
 28 32  1  0
 29 30  2  0
 30 31  1  0
 30 55  1  0
 31 32  2  0
 31 56  1  0
M  END
