set 2: 20
     RDKit          3D

 55 59  0  0  1  0  0  0  0  0999 V2000
   -3.4521   -4.5498   10.4414 C   0  0  1  0  0  0  0  0  0  0  0  0
   -2.5452   -4.3434   11.7168 C   0  0  0  0  0  0  0  0  0  0  0  0
   -2.9880   -3.7789   12.8374 C   0  0  0  0  0  0  0  0  0  0  0  0
   -2.0793   -3.4860   13.8719 C   0  0  0  0  0  0  0  0  0  0  0  0
   -2.6040   -2.9900   15.1628 C   0  0  1  0  0  0  0  0  0  0  0  0
   -0.7317   -3.6430   13.7057 N   0  0  0  0  0  0  0  0  0  0  0  0
   -0.3832   -4.1795   12.4588 C   0  0  0  0  0  0  0  0  0  0  0  0
   -1.2252   -4.6452   11.4854 N   0  0  0  0  0  0  0  0  0  0  0  0
    0.9938   -4.4401   12.2283 N   0  0  0  0  0  0  0  0  0  0  0  0
    1.5492   -4.9431   10.9937 C   0  0  2  0  0  0  0  0  0  0  0  0
    2.4276   -3.8446   10.4785 C   0  0  1  0  0  0  0  0  0  0  0  0
    1.6766   -2.7695    9.6818 C   0  0  2  0  0  0  0  0  0  0  0  0
    1.8348   -1.5353   10.4619 N   0  0  0  0  0  0  0  0  0  0  0  0
    2.9290   -1.7029   11.4127 C   0  0  2  0  0  0  0  0  0  0  0  0
    3.0576   -3.2335   11.7395 C   0  0  1  0  0  0  0  0  0  0  0  0
    2.0863   -3.5979   12.8323 C   0  0  2  0  0  0  0  0  0  0  0  0
    1.1302   -0.4044   10.3271 C   0  0  0  0  0  0  0  0  0  0  0  0
    1.1932    0.5615   11.0967 O   0  0  0  0  0  0  0  0  0  0  0  0
    0.0297   -0.3410    9.2547 C   0  0  0  0  0  0  0  0  0  0  0  0
   -1.2834   -0.6919    9.5792 C   0  0  0  0  0  0  0  0  0  0  0  0
   -1.6953   -1.0559   11.0137 C   0  0  1  0  0  0  0  0  0  0  0  0
   -2.3079   -0.4353    8.6899 C   0  0  0  0  0  0  0  0  0  0  0  0
   -2.0116   -0.0091    7.4296 C   0  0  0  0  0  0  0  0  0  0  0  0
   -0.7058    0.1684    6.9928 C   0  0  0  0  0  0  0  0  0  0  0  0
    0.3672   -0.0475    7.8889 C   0  0  0  0  0  0  0  0  0  0  0  0
    1.7010    0.1459    7.3596 N   0  0  0  0  0  0  0  0  0  0  0  0
    2.8263    0.4352    8.0847 N   0  0  0  0  0  0  0  0  0  0  0  0
    3.7575    0.7383    7.2066 C   0  0  0  0  0  0  0  0  0  0  0  0
    3.1153    0.6085    5.9243 C   0  0  0  0  0  0  0  0  0  0  0  0
    1.8469    0.2624    6.0346 N   0  0  0  0  0  0  0  0  0  0  0  0
   -4.5013   -4.3478   10.6596 H   0  0  0  0  0  0  0  0  0  0  0  0
   -3.1365   -3.8797    9.6415 H   0  0  0  0  0  0  0  0  0  0  0  0
   -3.3780   -5.5756   10.0779 H   0  0  0  0  0  0  0  0  0  0  0  0
   -4.0319   -3.5380   12.9768 H   0  0  0  0  0  0  0  0  0  0  0  0
   -3.6945   -2.9963   15.1818 H   0  0  0  0  0  0  0  0  0  0  0  0
   -2.2508   -3.6137   15.9850 H   0  0  0  0  0  0  0  0  0  0  0  0
   -2.2684   -1.9679   15.3405 H   0  0  0  0  0  0  0  0  0  0  0  0
    0.7526   -5.1937   10.2917 H   0  0  0  0  0  0  0  0  0  0  0  0
    2.0914   -5.8693   11.1892 H   0  0  0  0  0  0  0  0  0  0  0  0
    3.2167   -4.2757    9.8603 H   0  0  0  0  0  0  0  0  0  0  0  0
    0.6247   -3.0396    9.5971 H   0  0  0  0  0  0  0  0  0  0  0  0
    2.1290   -2.6508    8.6964 H   0  0  0  0  0  0  0  0  0  0  0  0
    2.8107   -1.1528   12.3478 H   0  0  0  0  0  0  0  0  0  0  0  0
    3.8644   -1.3993   10.9410 H   0  0  0  0  0  0  0  0  0  0  0  0
    4.0897   -3.5705   11.8485 H   0  0  0  0  0  0  0  0  0  0  0  0
    2.5919   -4.1775   13.6058 H   0  0  0  0  0  0  0  0  0  0  0  0
    1.6260   -2.7148   13.2791 H   0  0  0  0  0  0  0  0  0  0  0  0
   -2.7714   -1.2031   11.1149 H   0  0  0  0  0  0  0  0  0  0  0  0
   -1.1918   -1.9688   11.3330 H   0  0  0  0  0  0  0  0  0  0  0  0
   -1.4077   -0.2621   11.7039 H   0  0  0  0  0  0  0  0  0  0  0  0
   -3.3374   -0.5674    8.9899 H   0  0  0  0  0  0  0  0  0  0  0  0
   -2.8062    0.2000    6.7286 H   0  0  0  0  0  0  0  0  0  0  0  0
   -0.5377    0.4592    5.9653 H   0  0  0  0  0  0  0  0  0  0  0  0
    4.7656    1.0065    7.4872 H   0  0  0  0  0  0  0  0  0  0  0  0
    3.5576    0.7651    4.9515 H   0  0  0  0  0  0  0  0  0  0  0  0
  1  2  1  0
  1 31  1  1
  1 32  1  0
  1 33  1  0
  2  3  2  0
  2  8  1  0
  3  4  1  0
  3 34  1  0
  4  5  1  0
  4  6  2  0
  5 35  1  6
  5 36  1  0
  5 37  1  0
  6  7  1  0
  7  8  2  0
  7  9  1  0
  9 10  1  0
  9 16  1  0
 10 11  1  0
 10 38  1  6
 10 39  1  0
 11 12  1  0
 11 15  1  0
 11 40  1  6
 12 13  1  0
 12 41  1  6
 12 42  1  0
 13 14  1  0
 13 17  1  0
 14 15  1  0
 14 43  1  1
 14 44  1  0
 15 16  1  0
 15 45  1  1
 16 46  1  1
 16 47  1  0
 17 18  2  0
 17 19  1  0
 19 20  2  0
 19 25  1  0
 20 21  1  0
 20 22  1  0
 21 48  1  6
 21 49  1  0
 21 50  1  0
 22 23  2  0
 22 51  1  0
 23 24  1  0
 23 52  1  0
 24 25  2  0
 24 53  1  0
 25 26  1  0
 26 27  1  0
 26 30  1  0
 27 28  2  0
 28 29  1  0
 28 54  1  0
 29 30  2  0
 29 55  1  0
M  END
