set 2: 4
     RDKit          3D

 52 56  0  0  1  0  0  0  0  0999 V2000
   -3.4521   -4.5498   10.4414 C   0  0  1  0  0  0  0  0  0  0  0  0
   -2.5452   -4.3434   11.7168 C   0  0  0  0  0  0  0  0  0  0  0  0
   -2.9880   -3.7789   12.8374 C   0  0  0  0  0  0  0  0  0  0  0  0
   -2.0793   -3.4860   13.8719 C   0  0  0  0  0  0  0  0  0  0  0  0
   -2.6040   -2.9900   15.1628 C   0  0  1  0  0  0  0  0  0  0  0  0
   -0.7317   -3.6430   13.7057 N   0  0  0  0  0  0  0  0  0  0  0  0
   -0.3832   -4.1795   12.4588 C   0  0  0  0  0  0  0  0  0  0  0  0
   -1.2252   -4.6452   11.4854 N   0  0  0  0  0  0  0  0  0  0  0  0
    0.9938   -4.4401   12.2283 N   0  0  0  0  0  0  0  0  0  0  0  0
    1.5492   -4.9431   10.9937 C   0  0  2  0  0  0  0  0  0  0  0  0
    2.4276   -3.8446   10.4785 C   0  0  1  0  0  0  0  0  0  0  0  0
    1.6766   -2.7695    9.6818 C   0  0  2  0  0  0  0  0  0  0  0  0
    1.8348   -1.5353   10.4619 N   0  0  0  0  0  0  0  0  0  0  0  0
    2.9290   -1.7029   11.4127 C   0  0  2  0  0  0  0  0  0  0  0  0
    3.0576   -3.2335   11.7395 C   0  0  1  0  0  0  0  0  0  0  0  0
    2.0863   -3.5979   12.8323 C   0  0  2  0  0  0  0  0  0  0  0  0
    1.1302   -0.4044   10.3271 C   0  0  0  0  0  0  0  0  0  0  0  0
    1.1932    0.5615   11.0967 O   0  0  0  0  0  0  0  0  0  0  0  0
    0.0297   -0.3410    9.2547 C   0  0  0  0  0  0  0  0  0  0  0  0
   -1.2834   -0.6919    9.5792 C   0  0  0  0  0  0  0  0  0  0  0  0
   -2.3079   -0.4353    8.6899 C   0  0  0  0  0  0  0  0  0  0  0  0
   -3.9448   -0.7164    9.1540 Cl  0  0  0  0  0  0  0  0  0  0  0  0
   -2.0116   -0.0091    7.4296 C   0  0  0  0  0  0  0  0  0  0  0  0
   -0.7058    0.1684    6.9928 C   0  0  0  0  0  0  0  0  0  0  0  0
    0.3672   -0.0475    7.8889 C   0  0  0  0  0  0  0  0  0  0  0  0
    1.7010    0.1459    7.3596 N   0  0  0  0  0  0  0  0  0  0  0  0
    1.8469    0.2624    6.0346 N   0  0  0  0  0  0  0  0  0  0  0  0
    3.1153    0.6085    5.9243 C   0  0  0  0  0  0  0  0  0  0  0  0
    3.7575    0.7383    7.2066 C   0  0  0  0  0  0  0  0  0  0  0  0
    2.8263    0.4352    8.0847 N   0  0  0  0  0  0  0  0  0  0  0  0
   -3.3840   -5.5810   10.0952 H   0  0  0  0  0  0  0  0  0  0  0  0
   -4.4960   -4.3277   10.6608 H   0  0  0  0  0  0  0  0  0  0  0  0
   -3.1225   -3.8926    9.6367 H   0  0  0  0  0  0  0  0  0  0  0  0
   -4.0418   -3.5726   12.9563 H   0  0  0  0  0  0  0  0  0  0  0  0
   -2.3237   -3.6744   15.9634 H   0  0  0  0  0  0  0  0  0  0  0  0
   -2.1756   -2.0128   15.3858 H   0  0  0  0  0  0  0  0  0  0  0  0
   -3.6895   -2.8945   15.1582 H   0  0  0  0  0  0  0  0  0  0  0  0
    0.8014   -5.2451   10.2599 H   0  0  0  0  0  0  0  0  0  0  0  0
    2.1391   -5.8303   11.2256 H   0  0  0  0  0  0  0  0  0  0  0  0
    3.2019   -4.2684    9.8373 H   0  0  0  0  0  0  0  0  0  0  0  0
    0.6219   -3.0235    9.5608 H   0  0  0  0  0  0  0  0  0  0  0  0
    2.1090   -2.6370    8.6892 H   0  0  0  0  0  0  0  0  0  0  0  0
    2.7958   -1.1002   12.3133 H   0  0  0  0  0  0  0  0  0  0  0  0
    3.8405   -1.3463   10.9312 H   0  0  0  0  0  0  0  0  0  0  0  0
    4.0758   -3.5642   11.9482 H   0  0  0  0  0  0  0  0  0  0  0  0
    2.5813   -4.1790   13.6107 H   0  0  0  0  0  0  0  0  0  0  0  0
    1.6606   -2.7197   13.3204 H   0  0  0  0  0  0  0  0  0  0  0  0
   -1.5181   -1.0161   10.5836 H   0  0  0  0  0  0  0  0  0  0  0  0
   -2.8216    0.1687    6.7372 H   0  0  0  0  0  0  0  0  0  0  0  0
   -0.5542    0.4708    5.9672 H   0  0  0  0  0  0  0  0  0  0  0  0
    3.5494    0.7753    4.9489 H   0  0  0  0  0  0  0  0  0  0  0  0
    4.7655    1.0130    7.4831 H   0  0  0  0  0  0  0  0  0  0  0  0
  1  2  1  0
  1 31  1  6
  1 32  1  0
  1 33  1  0
  2  3  2  0
  2  8  1  0
  3  4  1  0
  3 34  1  0
  4  5  1  0
  4  6  2  0
  5 35  1  1
  5 36  1  0
  5 37  1  0
  6  7  1  0
  7  8  2  0
  7  9  1  0
  9 10  1  0
  9 16  1  0
 10 11  1  0
 10 38  1  6
 10 39  1  0
 11 12  1  0
 11 15  1  0
 11 40  1  6
 12 13  1  0
 12 41  1  6
 12 42  1  0
 13 14  1  0
 13 17  1  0
 14 15  1  0
 14 43  1  1
 14 44  1  0
 15 16  1  0
 15 45  1  1
 16 46  1  1
 16 47  1  0
 17 18  2  0
 17 19  1  0
 19 20  2  0
 19 25  1  0
 20 21  1  0
 20 48  1  0
 21 22  1  0
 21 23  2  0
 23 24  1  0
 23 49  1  0
 24 25  2  0
 24 50  1  0
 25 26  1  0
 26 27  1  0
 26 30  1  0
 27 28  2  0
 28 29  1  0
 28 51  1  0
 29 30  2  0
 29 52  1  0
M  END
