set 1: 6
     RDKit          3D

 54 58  0  0  1  0  0  0  0  0999 V2000
   -3.7249   -3.5532   15.8191 C   0  0  1  0  0  0  0  0  0  0  0  0
   -2.3975   -3.5645   15.4420 O   0  0  0  0  0  0  0  0  0  0  0  0
   -2.1685   -3.9023   14.1237 C   0  0  0  0  0  0  0  0  0  0  0  0
   -3.2009   -4.1634   13.2655 C   0  0  0  0  0  0  0  0  0  0  0  0
   -2.8668   -4.5702   11.9600 C   0  0  0  0  0  0  0  0  0  0  0  0
   -1.5984   -4.5771   11.5085 N   0  0  0  0  0  0  0  0  0  0  0  0
   -0.5948   -4.2131   12.3776 C   0  0  0  0  0  0  0  0  0  0  0  0
   -0.8756   -3.9276   13.7033 N   0  0  0  0  0  0  0  0  0  0  0  0
    0.7623   -4.2315   11.9120 N   0  0  0  0  0  0  0  0  0  0  0  0
    1.1704   -4.4908   10.5060 C   0  0  2  0  0  0  0  0  0  0  0  0
    2.3676   -3.6135   10.2478 C   0  0  1  0  0  0  0  0  0  0  0  0
    2.0453   -2.5149    9.2816 C   0  0  2  0  0  0  0  0  0  0  0  0
    2.1529   -1.2760   10.1529 N   0  0  0  0  0  0  0  0  0  0  0  0
    3.1240   -1.5230   11.2307 C   0  0  2  0  0  0  0  0  0  0  0  0
    2.9019   -3.0312   11.5568 C   0  0  1  0  0  0  0  0  0  0  0  0
    1.8018   -3.3186   12.4994 C   0  0  2  0  0  0  0  0  0  0  0  0
    1.2374   -0.2955   10.2863 C   0  0  0  0  0  0  0  0  0  0  0  0
    1.2872    0.5189   11.2493 O   0  0  0  0  0  0  0  0  0  0  0  0
    0.1829   -0.3451    9.2428 C   0  0  0  0  0  0  0  0  0  0  0  0
   -1.1964   -0.5656    9.6549 C   0  0  0  0  0  0  0  0  0  0  0  0
   -1.5785   -0.7618   10.9749 F   0  0  0  0  0  0  0  0  0  0  0  0
   -2.2132   -0.6087    8.7414 C   0  0  0  0  0  0  0  0  0  0  0  0
   -1.8601   -0.5094    7.3309 C   0  0  0  0  0  0  0  0  0  0  0  0
   -0.5320   -0.3242    6.9985 C   0  0  0  0  0  0  0  0  0  0  0  0
    0.4698   -0.0818    7.9111 C   0  0  0  0  0  0  0  0  0  0  0  0
    1.7920    0.2338    7.4004 N   0  0  0  0  0  0  0  0  0  0  0  0
    2.2460   -0.0112    6.1420 N   0  0  0  0  0  0  0  0  0  0  0  0
    3.5033    0.3363    6.1843 C   0  0  0  0  0  0  0  0  0  0  0  0
    3.7718    0.9161    7.4083 C   0  0  0  0  0  0  0  0  0  0  0  0
    2.7091    0.9351    8.1233 N   0  0  0  0  0  0  0  0  0  0  0  0
   -3.8490   -4.9139   11.0536 O   0  0  0  0  0  0  0  0  0  0  0  0
   -3.3927   -5.2227    9.7883 C   0  0  1  0  0  0  0  0  0  0  0  0
   -3.8016   -3.2766   16.8706 H   0  0  0  0  0  0  0  0  0  0  0  0
   -4.2688   -2.8292   15.2124 H   0  0  0  0  0  0  0  0  0  0  0  0
   -4.1528   -4.5448   15.6721 H   0  0  0  0  0  0  0  0  0  0  0  0
   -4.2270   -4.1274   13.5970 H   0  0  0  0  0  0  0  0  0  0  0  0
    0.3404   -4.3250    9.8185 H   0  0  0  0  0  0  0  0  0  0  0  0
    1.4408   -5.5440   10.4259 H   0  0  0  0  0  0  0  0  0  0  0  0
    3.1430   -4.2320    9.7926 H   0  0  0  0  0  0  0  0  0  0  0  0
    1.0864   -2.6522    8.7835 H   0  0  0  0  0  0  0  0  0  0  0  0
    2.8046   -2.4478    8.5013 H   0  0  0  0  0  0  0  0  0  0  0  0
    3.0225   -0.9023   12.1228 H   0  0  0  0  0  0  0  0  0  0  0  0
    4.1251   -1.3557   10.8328 H   0  0  0  0  0  0  0  0  0  0  0  0
    3.8209   -3.5230   11.8788 H   0  0  0  0  0  0  0  0  0  0  0  0
    2.1871   -3.7689   13.4148 H   0  0  0  0  0  0  0  0  0  0  0  0
    1.3050   -2.3954   12.8039 H   0  0  0  0  0  0  0  0  0  0  0  0
   -3.2344   -0.7667    9.0567 H   0  0  0  0  0  0  0  0  0  0  0  0
   -2.6170   -0.5968    6.5648 H   0  0  0  0  0  0  0  0  0  0  0  0
   -0.2998   -0.2410    5.9458 H   0  0  0  0  0  0  0  0  0  0  0  0
    4.1541    0.2034    5.3320 H   0  0  0  0  0  0  0  0  0  0  0  0
    4.6916    1.3576    7.7649 H   0  0  0  0  0  0  0  0  0  0  0  0
   -4.2380   -5.4791    9.1498 H   0  0  0  0  0  0  0  0  0  0  0  0
   -2.8697   -4.3624    9.3707 H   0  0  0  0  0  0  0  0  0  0  0  0
   -2.7100   -6.0705    9.8452 H   0  0  0  0  0  0  0  0  0  0  0  0
  1  2  1  0
  1 33  1  1
  1 34  1  0
  1 35  1  0
  2  3  1  0
  3  4  2  0
  3  8  1  0
  4  5  1  0
  4 36  1  0
  5  6  2  0
  5 31  1  0
  6  7  1  0
  7  8  2  0
  7  9  1  0
  9 10  1  0
  9 16  1  0
 10 11  1  0
 10 37  1  6
 10 38  1  0
 11 12  1  0
 11 15  1  0
 11 39  1  6
 12 13  1  0
 12 40  1  6
 12 41  1  0
 13 14  1  0
 13 17  1  0
 14 15  1  0
 14 42  1  1
 14 43  1  0
 15 16  1  0
 15 44  1  1
 16 45  1  1
 16 46  1  0
 17 18  2  0
 17 19  1  0
 19 20  2  0
 19 25  1  0
 20 21  1  0
 20 22  1  0
 22 23  2  0
 22 47  1  0
 23 24  1  0
 23 48  1  0
 24 25  2  0
 24 49  1  0
 25 26  1  0
 26 27  1  0
 26 30  1  0
 27 28  2  0
 28 29  1  0
 28 50  1  0
 29 30  2  0
 29 51  1  0
 31 32  1  0
 32 52  1  6
 32 53  1  0
 32 54  1  0
M  END
