set 2: 15
     RDKit          3D

 55 59  0  0  1  0  0  0  0  0999 V2000
   -4.0858   -0.7839    6.6277 C   0  0  1  0  0  0  0  0  0  0  0  0
   -2.8701   -0.2440    6.2603 O   0  0  0  0  0  0  0  0  0  0  0  0
   -1.9127   -0.2327    7.2541 C   0  0  0  0  0  0  0  0  0  0  0  0
   -2.2090   -0.7427    8.5170 C   0  0  0  0  0  0  0  0  0  0  0  0
   -1.2994   -0.7522    9.5238 N   0  0  0  0  0  0  0  0  0  0  0  0
   -0.0671   -0.2418    9.2657 C   0  0  0  0  0  0  0  0  0  0  0  0
    0.9211   -0.2632   10.3940 C   0  0  0  0  0  0  0  0  0  0  0  0
    1.0590    0.6497   11.2167 O   0  0  0  0  0  0  0  0  0  0  0  0
    1.6284   -1.4004   10.3897 N   0  0  0  0  0  0  0  0  0  0  0  0
    2.8031   -1.6303   11.2243 C   0  0  2  0  0  0  0  0  0  0  0  0
    2.9518   -3.1791   11.4366 C   0  0  1  0  0  0  0  0  0  0  0  0
    2.0812   -3.6152   12.5865 C   0  0  2  0  0  0  0  0  0  0  0  0
    0.9338   -4.4159   12.0297 N   0  0  0  0  0  0  0  0  0  0  0  0
    1.3723   -4.8360   10.7195 C   0  0  2  0  0  0  0  0  0  0  0  0
    2.2070   -3.7056   10.2003 C   0  0  1  0  0  0  0  0  0  0  0  0
    1.3932   -2.5804    9.5475 C   0  0  2  0  0  0  0  0  0  0  0  0
   -0.4152   -4.1713   12.4007 C   0  0  0  0  0  0  0  0  0  0  0  0
   -0.6465   -3.7186   13.7066 N   0  0  0  0  0  0  0  0  0  0  0  0
   -1.9726   -3.5731   14.0042 C   0  0  0  0  0  0  0  0  0  0  0  0
   -2.3756   -3.1637   15.3673 C   0  0  1  0  0  0  0  0  0  0  0  0
   -2.9728   -3.7973   13.0393 C   0  0  0  0  0  0  0  0  0  0  0  0
   -2.6363   -4.2863   11.8484 C   0  0  0  0  0  0  0  0  0  0  0  0
   -3.6560   -4.4082   10.6496 C   0  0  1  0  0  0  0  0  0  0  0  0
   -1.3444   -4.5719   11.4791 N   0  0  0  0  0  0  0  0  0  0  0  0
    0.3000    0.2847    8.0280 C   0  0  0  0  0  0  0  0  0  0  0  0
   -0.6435    0.2883    7.0029 C   0  0  0  0  0  0  0  0  0  0  0  0
    1.6417    0.8190    7.8133 N   0  0  0  0  0  0  0  0  0  0  0  0
    2.0285    1.3334    6.6343 N   0  0  0  0  0  0  0  0  0  0  0  0
    3.2685    1.6880    6.8672 C   0  0  0  0  0  0  0  0  0  0  0  0
    3.6026    1.3787    8.1851 C   0  0  0  0  0  0  0  0  0  0  0  0
    2.5728    0.8295    8.7813 N   0  0  0  0  0  0  0  0  0  0  0  0
   -4.7703   -0.7478    5.7803 H   0  0  0  0  0  0  0  0  0  0  0  0
   -3.9448   -1.8195    6.9371 H   0  0  0  0  0  0  0  0  0  0  0  0
   -4.5024   -0.2108    7.4560 H   0  0  0  0  0  0  0  0  0  0  0  0
   -3.1896   -1.1513    8.7300 H   0  0  0  0  0  0  0  0  0  0  0  0
    2.7540   -1.0898   12.1719 H   0  0  0  0  0  0  0  0  0  0  0  0
    3.6721   -1.2439   10.6906 H   0  0  0  0  0  0  0  0  0  0  0  0
    3.9828   -3.5227   11.5302 H   0  0  0  0  0  0  0  0  0  0  0  0
    1.7057   -2.7711   13.1671 H   0  0  0  0  0  0  0  0  0  0  0  0
    2.6410   -4.2458   13.2773 H   0  0  0  0  0  0  0  0  0  0  0  0
    0.5595   -5.0887   10.0382 H   0  0  0  0  0  0  0  0  0  0  0  0
    1.9755   -5.7366   10.8381 H   0  0  0  0  0  0  0  0  0  0  0  0
    2.9179   -4.0864    9.4656 H   0  0  0  0  0  0  0  0  0  0  0  0
    1.7309   -2.3841    8.5293 H   0  0  0  0  0  0  0  0  0  0  0  0
    0.3273   -2.8140    9.5114 H   0  0  0  0  0  0  0  0  0  0  0  0
   -2.8736   -2.1948   15.3402 H   0  0  0  0  0  0  0  0  0  0  0  0
   -3.0565   -3.8965   15.7996 H   0  0  0  0  0  0  0  0  0  0  0  0
   -1.5059   -3.0812   16.0199 H   0  0  0  0  0  0  0  0  0  0  0  0
   -4.0087   -3.5987   13.2725 H   0  0  0  0  0  0  0  0  0  0  0  0
   -3.4341   -5.2917   10.0507 H   0  0  0  0  0  0  0  0  0  0  0  0
   -4.6786   -4.4922   11.0166 H   0  0  0  0  0  0  0  0  0  0  0  0
   -3.5869   -3.5300   10.0082 H   0  0  0  0  0  0  0  0  0  0  0  0
   -0.3959    0.6882    6.0289 H   0  0  0  0  0  0  0  0  0  0  0  0
    3.9076    2.1494    6.1235 H   0  0  0  0  0  0  0  0  0  0  0  0
    4.5542    1.5508    8.6742 H   0  0  0  0  0  0  0  0  0  0  0  0
  1  2  1  0
  1 32  1  6
  1 33  1  0
  1 34  1  0
  2  3  1  0
  3  4  2  0
  3 26  1  0
  4  5  1  0
  4 35  1  0
  5  6  2  0
  6  7  1  0
  6 25  1  0
  7  8  2  0
  7  9  1  0
  9 10  1  0
  9 16  1  0
 10 11  1  0
 10 36  1  1
 10 37  1  0
 11 12  1  0
 11 15  1  0
 11 38  1  1
 12 13  1  0
 12 39  1  1
 12 40  1  0
 13 14  1  0
 13 17  1  0
 14 15  1  0
 14 41  1  6
 14 42  1  0
 15 16  1  0
 15 43  1  6
 16 44  1  6
 16 45  1  0
 17 18  2  0
 17 24  1  0
 18 19  1  0
 19 20  1  0
 19 21  2  0
 20 46  1  6
 20 47  1  0
 20 48  1  0
 21 22  1  0
 21 49  1  0
 22 23  1  0
 22 24  2  0
 23 50  1  6
 23 51  1  0
 23 52  1  0
 25 26  2  0
 25 27  1  0
 26 53  1  0
 27 28  1  0
 27 31  1  0
 28 29  2  0
 29 30  1  0
 29 54  1  0
 30 31  2  0
 30 55  1  0
M  END
