set 2: 7
     RDKit          3D

 56 60  0  0  1  0  0  0  0  0999 V2000
   -1.6656    0.7223    4.9458 C   0  0  1  0  0  0  0  0  0  0  0  0
   -0.5108    0.5558    5.6828 O   0  0  0  0  0  0  0  0  0  0  0  0
   -0.7058    0.1684    6.9928 C   0  0  0  0  0  0  0  0  0  0  0  0
   -2.0116   -0.0091    7.4296 C   0  0  0  0  0  0  0  0  0  0  0  0
   -2.3079   -0.4353    8.6899 C   0  0  0  0  0  0  0  0  0  0  0  0
   -1.2834   -0.6919    9.5792 C   0  0  0  0  0  0  0  0  0  0  0  0
    0.0297   -0.3410    9.2547 C   0  0  0  0  0  0  0  0  0  0  0  0
    1.1302   -0.4044   10.3271 C   0  0  0  0  0  0  0  0  0  0  0  0
    1.1932    0.5615   11.0967 O   0  0  0  0  0  0  0  0  0  0  0  0
    1.8348   -1.5353   10.4619 N   0  0  0  0  0  0  0  0  0  0  0  0
    2.9290   -1.7029   11.4127 C   0  0  2  0  0  0  0  0  0  0  0  0
    3.0576   -3.2335   11.7395 C   0  0  1  0  0  0  0  0  0  0  0  0
    2.0863   -3.5979   12.8323 C   0  0  2  0  0  0  0  0  0  0  0  0
    0.9938   -4.4401   12.2283 N   0  0  0  0  0  0  0  0  0  0  0  0
    1.5492   -4.9431   10.9937 C   0  0  2  0  0  0  0  0  0  0  0  0
    2.4276   -3.8446   10.4785 C   0  0  1  0  0  0  0  0  0  0  0  0
    1.6766   -2.7695    9.6818 C   0  0  2  0  0  0  0  0  0  0  0  0
   -0.3832   -4.1795   12.4588 C   0  0  0  0  0  0  0  0  0  0  0  0
   -0.7317   -3.6430   13.7057 N   0  0  0  0  0  0  0  0  0  0  0  0
   -2.0793   -3.4860   13.8719 C   0  0  0  0  0  0  0  0  0  0  0  0
   -2.6040   -2.9900   15.1628 C   0  0  1  0  0  0  0  0  0  0  0  0
   -2.9880   -3.7789   12.8374 C   0  0  0  0  0  0  0  0  0  0  0  0
   -2.5452   -4.3434   11.7168 C   0  0  0  0  0  0  0  0  0  0  0  0
   -3.4521   -4.5498   10.4414 C   0  0  1  0  0  0  0  0  0  0  0  0
   -1.2252   -4.6452   11.4854 N   0  0  0  0  0  0  0  0  0  0  0  0
    0.3672   -0.0475    7.8889 C   0  0  0  0  0  0  0  0  0  0  0  0
    1.7010    0.1459    7.3596 N   0  0  0  0  0  0  0  0  0  0  0  0
    1.8469    0.2624    6.0346 N   0  0  0  0  0  0  0  0  0  0  0  0
    3.1153    0.6085    5.9243 C   0  0  0  0  0  0  0  0  0  0  0  0
    3.7575    0.7383    7.2066 C   0  0  0  0  0  0  0  0  0  0  0  0
    2.8263    0.4352    8.0847 N   0  0  0  0  0  0  0  0  0  0  0  0
   -1.4085    1.0267    3.9312 H   0  0  0  0  0  0  0  0  0  0  0  0
   -2.2156   -0.2182    4.9146 H   0  0  0  0  0  0  0  0  0  0  0  0
   -2.2850    1.4901    5.4095 H   0  0  0  0  0  0  0  0  0  0  0  0
   -2.8203    0.1720    6.7361 H   0  0  0  0  0  0  0  0  0  0  0  0
   -3.3354   -0.5983    8.9826 H   0  0  0  0  0  0  0  0  0  0  0  0
   -1.5157   -1.0134   10.5853 H   0  0  0  0  0  0  0  0  0  0  0  0
    2.7960   -1.0997   12.3129 H   0  0  0  0  0  0  0  0  0  0  0  0
    3.8403   -1.3466   10.9308 H   0  0  0  0  0  0  0  0  0  0  0  0
    4.0759   -3.5641   11.9479 H   0  0  0  0  0  0  0  0  0  0  0  0
    1.6603   -2.7196   13.3199 H   0  0  0  0  0  0  0  0  0  0  0  0
    2.5813   -4.1786   13.6108 H   0  0  0  0  0  0  0  0  0  0  0  0
    0.8015   -5.2450   10.2597 H   0  0  0  0  0  0  0  0  0  0  0  0
    2.1391   -5.8303   11.2253 H   0  0  0  0  0  0  0  0  0  0  0  0
    3.2019   -4.2681    9.8372 H   0  0  0  0  0  0  0  0  0  0  0  0
    2.1086   -2.6365    8.6891 H   0  0  0  0  0  0  0  0  0  0  0  0
    0.6217   -3.0223    9.5603 H   0  0  0  0  0  0  0  0  0  0  0  0
   -2.2809   -3.6468   15.9704 H   0  0  0  0  0  0  0  0  0  0  0  0
   -2.2153   -1.9912   15.3613 H   0  0  0  0  0  0  0  0  0  0  0  0
   -3.6926   -2.9433   15.1755 H   0  0  0  0  0  0  0  0  0  0  0  0
   -4.0418   -3.5742   12.9573 H   0  0  0  0  0  0  0  0  0  0  0  0
   -4.5072   -4.5722   10.7123 H   0  0  0  0  0  0  0  0  0  0  0  0
   -3.2907   -3.7378    9.7326 H   0  0  0  0  0  0  0  0  0  0  0  0
   -3.2049   -5.4908    9.9495 H   0  0  0  0  0  0  0  0  0  0  0  0
    3.5490    0.7753    4.9488 H   0  0  0  0  0  0  0  0  0  0  0  0
    4.7652    1.0131    7.4833 H   0  0  0  0  0  0  0  0  0  0  0  0
  1  2  1  0
  1 32  1  6
  1 33  1  0
  1 34  1  0
  2  3  1  0
  3  4  2  0
  3 26  1  0
  4  5  1  0
  4 35  1  0
  5  6  2  0
  5 36  1  0
  6  7  1  0
  6 37  1  0
  7  8  1  0
  7 26  2  0
  8  9  2  0
  8 10  1  0
 10 11  1  0
 10 17  1  0
 11 12  1  0
 11 38  1  1
 11 39  1  0
 12 13  1  0
 12 16  1  0
 12 40  1  1
 13 14  1  0
 13 41  1  1
 13 42  1  0
 14 15  1  0
 14 18  1  0
 15 16  1  0
 15 43  1  6
 15 44  1  0
 16 17  1  0
 16 45  1  6
 17 46  1  6
 17 47  1  0
 18 19  2  0
 18 25  1  0
 19 20  1  0
 20 21  1  0
 20 22  2  0
 21 48  1  1
 21 49  1  0
 21 50  1  0
 22 23  1  0
 22 51  1  0
 23 24  1  0
 23 25  2  0
 24 52  1  1
 24 53  1  0
 24 54  1  0
 26 27  1  0
 27 28  1  0
 27 31  1  0
 28 29  2  0
 29 30  1  0
 29 55  1  0
 30 31  2  0
 30 56  1  0
M  END
