set 2: 9
     RDKit          3D

 56 60  0  0  1  0  0  0  0  0999 V2000
   -3.8390   -1.1153   10.4290 C   0  0  1  0  0  0  0  0  0  0  0  0
   -3.7055   -0.6576    9.1340 O   0  0  0  0  0  0  0  0  0  0  0  0
   -2.4053   -0.4548    8.7182 C   0  0  0  0  0  0  0  0  0  0  0  0
   -2.1475   -0.0376    7.4465 C   0  0  0  0  0  0  0  0  0  0  0  0
   -0.8555    0.1342    6.9682 C   0  0  0  0  0  0  0  0  0  0  0  0
    0.2444   -0.0781    7.8321 C   0  0  0  0  0  0  0  0  0  0  0  0
   -0.0512   -0.3617    9.2096 C   0  0  0  0  0  0  0  0  0  0  0  0
   -1.3542   -0.7077    9.5769 C   0  0  0  0  0  0  0  0  0  0  0  0
    1.0820   -0.4204   10.2477 C   0  0  0  0  0  0  0  0  0  0  0  0
    1.1707    0.5505   11.0085 O   0  0  0  0  0  0  0  0  0  0  0  0
    1.7882   -1.5518   10.3682 N   0  0  0  0  0  0  0  0  0  0  0  0
    1.6035   -2.7908    9.6016 C   0  0  2  0  0  0  0  0  0  0  0  0
    2.3768   -3.8622   10.3818 C   0  0  2  0  0  0  0  0  0  0  0  0
    1.5127   -4.9554   10.9313 C   0  0  2  0  0  0  0  0  0  0  0  0
    0.9969   -4.4431   12.1792 N   0  0  0  0  0  0  0  0  0  0  0  0
    2.1091   -3.5992   12.7434 C   0  0  2  0  0  0  0  0  0  0  0  0
    3.0468   -3.2442   11.6186 C   0  0  2  0  0  0  0  0  0  0  0  0
    2.9110   -1.7155   11.2856 C   0  0  2  0  0  0  0  0  0  0  0  0
   -0.3719   -4.1780   12.4505 C   0  0  0  0  0  0  0  0  0  0  0  0
   -1.2445   -4.6484   11.5069 N   0  0  0  0  0  0  0  0  0  0  0  0
   -2.5561   -4.3422   11.7770 C   0  0  0  0  0  0  0  0  0  0  0  0
   -3.5026   -4.5552   10.5318 C   0  0  1  0  0  0  0  0  0  0  0  0
   -2.9629   -3.7694   12.9070 C   0  0  0  0  0  0  0  0  0  0  0  0
   -2.0220   -3.4716   13.9108 C   0  0  0  0  0  0  0  0  0  0  0  0
   -2.5054   -2.9659   15.2141 C   0  0  1  0  0  0  0  0  0  0  0  0
   -0.6805   -3.6326   13.7040 N   0  0  0  0  0  0  0  0  0  0  0  0
    1.6138    0.1571    7.3835 N   0  0  0  0  0  0  0  0  0  0  0  0
    2.6601    0.1215    8.2250 N   0  0  0  0  0  0  0  0  0  0  0  0
    3.6741    0.3788    7.4356 C   0  0  0  0  0  0  0  0  0  0  0  0
    3.2152    0.5644    6.1321 C   0  0  0  0  0  0  0  0  0  0  0  0
    1.9126    0.4238    6.1015 N   0  0  0  0  0  0  0  0  0  0  0  0
   -4.8961   -1.2435   10.6619 H   0  0  0  0  0  0  0  0  0  0  0  0
   -3.3259   -2.0715   10.5311 H   0  0  0  0  0  0  0  0  0  0  0  0
   -3.4005   -0.3924   11.1169 H   0  0  0  0  0  0  0  0  0  0  0  0
   -2.9777    0.1420    6.7787 H   0  0  0  0  0  0  0  0  0  0  0  0
   -0.6909    0.4357    5.9438 H   0  0  0  0  0  0  0  0  0  0  0  0
   -1.5566   -1.0224   10.5917 H   0  0  0  0  0  0  0  0  0  0  0  0
    1.9993   -2.6672    8.5930 H   0  0  0  0  0  0  0  0  0  0  0  0
    0.5440   -3.0411    9.5185 H   0  0  0  0  0  0  0  0  0  0  0  0
    3.1297   -4.2924    9.7198 H   0  0  0  0  0  0  0  0  0  0  0  0
    2.1075   -5.8425   11.1505 H   0  0  0  0  0  0  0  0  0  0  0  0
    0.7418   -5.2601   10.2229 H   0  0  0  0  0  0  0  0  0  0  0  0
    2.6268   -4.1762   13.5100 H   0  0  0  0  0  0  0  0  0  0  0  0
    1.6998   -2.7171   13.2382 H   0  0  0  0  0  0  0  0  0  0  0  0
    4.0702   -3.5761   11.7979 H   0  0  0  0  0  0  0  0  0  0  0  0
    2.8054   -1.1077   12.1866 H   0  0  0  0  0  0  0  0  0  0  0  0
    3.8099   -1.3651   10.7772 H   0  0  0  0  0  0  0  0  0  0  0  0
   -4.2326   -5.3353   10.7452 H   0  0  0  0  0  0  0  0  0  0  0  0
   -4.0345   -3.6331   10.2992 H   0  0  0  0  0  0  0  0  0  0  0  0
   -2.9333   -4.8512    9.6499 H   0  0  0  0  0  0  0  0  0  0  0  0
   -4.0116   -3.5612   13.0620 H   0  0  0  0  0  0  0  0  0  0  0  0
   -1.6742   -2.8164   15.9040 H   0  0  0  0  0  0  0  0  0  0  0  0
   -3.0160   -2.0119   15.0853 H   0  0  0  0  0  0  0  0  0  0  0  0
   -3.1976   -3.6765   15.6651 H   0  0  0  0  0  0  0  0  0  0  0  0
    4.7005    0.4315    7.7794 H   0  0  0  0  0  0  0  0  0  0  0  0
    3.8124    0.7906    5.2565 H   0  0  0  0  0  0  0  0  0  0  0  0
  1  2  1  0
  1 32  1  1
  1 33  1  0
  1 34  1  0
  2  3  1  0
  3  4  2  0
  3  8  1  0
  4  5  1  0
  4 35  1  0
  5  6  2  0
  5 36  1  0
  6  7  1  0
  6 27  1  0
  7  8  2  0
  7  9  1  0
  8 37  1  0
  9 10  2  0
  9 11  1  0
 11 12  1  0
 11 18  1  0
 12 13  1  0
 12 38  1  6
 12 39  1  0
 13 14  1  0
 13 17  1  0
 13 40  1  6
 14 15  1  0
 14 41  1  1
 14 42  1  0
 15 16  1  0
 15 19  1  0
 16 17  1  0
 16 43  1  1
 16 44  1  0
 17 18  1  0
 17 45  1  1
 18 46  1  1
 18 47  1  0
 19 20  2  0
 19 26  1  0
 20 21  1  0
 21 22  1  0
 21 23  2  0
 22 48  1  1
 22 49  1  0
 22 50  1  0
 23 24  1  0
 23 51  1  0
 24 25  1  0
 24 26  2  0
 25 52  1  1
 25 53  1  0
 25 54  1  0
 27 28  1  0
 27 31  1  0
 28 29  2  0
 29 30  1  0
 29 55  1  0
 30 31  2  0
 30 56  1  0
M  END
