set 2: 18
     RDKit          3D

 52 56  0  0  1  0  0  0  0  0999 V2000
   -3.4521   -4.5498   10.4414 C   0  0  1  0  0  0  0  0  0  0  0  0
   -2.5452   -4.3434   11.7168 C   0  0  0  0  0  0  0  0  0  0  0  0
   -2.9880   -3.7789   12.8374 C   0  0  0  0  0  0  0  0  0  0  0  0
   -2.0793   -3.4860   13.8719 C   0  0  0  0  0  0  0  0  0  0  0  0
   -2.6040   -2.9900   15.1628 C   0  0  1  0  0  0  0  0  0  0  0  0
   -0.7317   -3.6430   13.7057 N   0  0  0  0  0  0  0  0  0  0  0  0
   -0.3832   -4.1795   12.4588 C   0  0  0  0  0  0  0  0  0  0  0  0
   -1.2252   -4.6452   11.4854 N   0  0  0  0  0  0  0  0  0  0  0  0
    0.9938   -4.4401   12.2283 N   0  0  0  0  0  0  0  0  0  0  0  0
    1.5492   -4.9431   10.9937 C   0  0  2  0  0  0  0  0  0  0  0  0
    2.4276   -3.8446   10.4785 C   0  0  1  0  0  0  0  0  0  0  0  0
    1.6766   -2.7695    9.6818 C   0  0  2  0  0  0  0  0  0  0  0  0
    1.8348   -1.5353   10.4619 N   0  0  0  0  0  0  0  0  0  0  0  0
    2.9290   -1.7029   11.4127 C   0  0  2  0  0  0  0  0  0  0  0  0
    3.0576   -3.2335   11.7395 C   0  0  1  0  0  0  0  0  0  0  0  0
    2.0863   -3.5979   12.8323 C   0  0  2  0  0  0  0  0  0  0  0  0
    1.1302   -0.4044   10.3271 C   0  0  0  0  0  0  0  0  0  0  0  0
    1.1932    0.5615   11.0967 O   0  0  0  0  0  0  0  0  0  0  0  0
    0.0297   -0.3410    9.2547 C   0  0  0  0  0  0  0  0  0  0  0  0
   -1.2834   -0.6919    9.5792 C   0  0  0  0  0  0  0  0  0  0  0  0
   -2.3079   -0.4353    8.6899 C   0  0  0  0  0  0  0  0  0  0  0  0
   -3.5891   -0.5963    9.0985 F   0  0  0  0  0  0  0  0  0  0  0  0
   -2.0116   -0.0091    7.4296 C   0  0  0  0  0  0  0  0  0  0  0  0
   -2.9836    0.2856    6.5336 F   0  0  0  0  0  0  0  0  0  0  0  0
   -0.7058    0.1684    6.9928 C   0  0  0  0  0  0  0  0  0  0  0  0
    0.3672   -0.0475    7.8889 C   0  0  0  0  0  0  0  0  0  0  0  0
    1.7010    0.1459    7.3596 N   0  0  0  0  0  0  0  0  0  0  0  0
    2.8263    0.4352    8.0847 N   0  0  0  0  0  0  0  0  0  0  0  0
    3.7575    0.7383    7.2066 C   0  0  0  0  0  0  0  0  0  0  0  0
    3.1153    0.6085    5.9243 C   0  0  0  0  0  0  0  0  0  0  0  0
    1.8469    0.2624    6.0346 N   0  0  0  0  0  0  0  0  0  0  0  0
   -3.0938   -3.9234    9.6242 H   0  0  0  0  0  0  0  0  0  0  0  0
   -3.4205   -5.5902   10.1170 H   0  0  0  0  0  0  0  0  0  0  0  0
   -4.4898   -4.2868   10.6451 H   0  0  0  0  0  0  0  0  0  0  0  0
   -4.0302   -3.5598   13.0165 H   0  0  0  0  0  0  0  0  0  0  0  0
   -3.6846   -2.8572   15.1204 H   0  0  0  0  0  0  0  0  0  0  0  0
   -2.3732   -3.6971   15.9594 H   0  0  0  0  0  0  0  0  0  0  0  0
   -2.1482   -2.0311   15.4097 H   0  0  0  0  0  0  0  0  0  0  0  0
    0.7650   -5.2027   10.2814 H   0  0  0  0  0  0  0  0  0  0  0  0
    2.1243   -5.8455   11.2039 H   0  0  0  0  0  0  0  0  0  0  0  0
    3.2328   -4.2906    9.8929 H   0  0  0  0  0  0  0  0  0  0  0  0
    0.6341   -3.0495    9.5242 H   0  0  0  0  0  0  0  0  0  0  0  0
    2.1273   -2.6358    8.6974 H   0  0  0  0  0  0  0  0  0  0  0  0
    2.7560   -1.1178   12.3175 H   0  0  0  0  0  0  0  0  0  0  0  0
    3.8461   -1.3304   10.9544 H   0  0  0  0  0  0  0  0  0  0  0  0
    4.1016   -3.5269   11.8581 H   0  0  0  0  0  0  0  0  0  0  0  0
    2.5717   -4.1840   13.6140 H   0  0  0  0  0  0  0  0  0  0  0  0
    1.6743   -2.7118   13.3176 H   0  0  0  0  0  0  0  0  0  0  0  0
   -1.4852   -1.1319   10.5455 H   0  0  0  0  0  0  0  0  0  0  0  0
   -0.5851    0.4309    5.9527 H   0  0  0  0  0  0  0  0  0  0  0  0
    4.7120    1.1411    7.5131 H   0  0  0  0  0  0  0  0  0  0  0  0
    3.5558    0.5357    4.9403 H   0  0  0  0  0  0  0  0  0  0  0  0
  1  2  1  0
  1 32  1  6
  1 33  1  0
  1 34  1  0
  2  3  2  0
  2  8  1  0
  3  4  1  0
  3 35  1  0
  4  5  1  0
  4  6  2  0
  5 36  1  6
  5 37  1  0
  5 38  1  0
  6  7  1  0
  7  8  2  0
  7  9  1  0
  9 10  1  0
  9 16  1  0
 10 11  1  0
 10 39  1  6
 10 40  1  0
 11 12  1  0
 11 15  1  0
 11 41  1  6
 12 13  1  0
 12 42  1  6
 12 43  1  0
 13 14  1  0
 13 17  1  0
 14 15  1  0
 14 44  1  1
 14 45  1  0
 15 16  1  0
 15 46  1  1
 16 47  1  1
 16 48  1  0
 17 18  2  0
 17 19  1  0
 19 20  2  0
 19 26  1  0
 20 21  1  0
 20 49  1  0
 21 22  1  0
 21 23  2  0
 23 24  1  0
 23 25  1  0
 25 26  2  0
 25 50  1  0
 26 27  1  0
 27 28  1  0
 27 31  1  0
 28 29  2  0
 29 30  1  0
 29 51  1  0
 30 31  2  0
 30 52  1  0
M  END
