set 2: 17
     RDKit          3D

 59 63  0  0  1  0  0  0  0  0999 V2000
   -5.6656   -0.9655   10.5275 C   0  0  1  0  0  0  0  0  0  0  0  0
   -4.1867   -0.7361   10.4264 C   0  0  0  0  0  0  0  0  0  0  0  0
   -3.4206   -0.6204   11.3785 O   0  0  0  0  0  0  0  0  0  0  0  0
   -3.7809   -0.6692    9.1581 N   0  0  0  0  0  0  0  0  0  0  0  0
   -2.4053   -0.4548    8.7182 C   0  0  0  0  0  0  0  0  0  0  0  0
   -2.1475   -0.0376    7.4465 C   0  0  0  0  0  0  0  0  0  0  0  0
   -0.8555    0.1342    6.9682 C   0  0  0  0  0  0  0  0  0  0  0  0
    0.2444   -0.0781    7.8321 C   0  0  0  0  0  0  0  0  0  0  0  0
   -0.0512   -0.3617    9.2096 C   0  0  0  0  0  0  0  0  0  0  0  0
   -1.3542   -0.7077    9.5769 C   0  0  0  0  0  0  0  0  0  0  0  0
    1.0820   -0.4204   10.2477 C   0  0  0  0  0  0  0  0  0  0  0  0
    1.1707    0.5505   11.0085 O   0  0  0  0  0  0  0  0  0  0  0  0
    1.7882   -1.5518   10.3682 N   0  0  0  0  0  0  0  0  0  0  0  0
    2.9110   -1.7155   11.2856 C   0  0  2  0  0  0  0  0  0  0  0  0
    3.0468   -3.2442   11.6186 C   0  0  1  0  0  0  0  0  0  0  0  0
    2.1091   -3.5992   12.7434 C   0  0  2  0  0  0  0  0  0  0  0  0
    0.9969   -4.4431   12.1792 N   0  0  0  0  0  0  0  0  0  0  0  0
    1.5127   -4.9554   10.9313 C   0  0  2  0  0  0  0  0  0  0  0  0
    2.3768   -3.8622   10.3818 C   0  0  1  0  0  0  0  0  0  0  0  0
    1.6035   -2.7908    9.6016 C   0  0  2  0  0  0  0  0  0  0  0  0
   -0.3719   -4.1780   12.4505 C   0  0  0  0  0  0  0  0  0  0  0  0
   -1.2445   -4.6484   11.5069 N   0  0  0  0  0  0  0  0  0  0  0  0
   -2.5561   -4.3422   11.7770 C   0  0  0  0  0  0  0  0  0  0  0  0
   -3.5026   -4.5552   10.5318 C   0  0  1  0  0  0  0  0  0  0  0  0
   -2.9629   -3.7694   12.9070 C   0  0  0  0  0  0  0  0  0  0  0  0
   -2.0220   -3.4716   13.9108 C   0  0  0  0  0  0  0  0  0  0  0  0
   -2.5054   -2.9659   15.2141 C   0  0  1  0  0  0  0  0  0  0  0  0
   -0.6805   -3.6326   13.7040 N   0  0  0  0  0  0  0  0  0  0  0  0
    1.6138    0.1570    7.3835 N   0  0  0  0  0  0  0  0  0  0  0  0
    2.6601    0.1212    8.2249 N   0  0  0  0  0  0  0  0  0  0  0  0
    3.6741    0.3785    7.4355 C   0  0  0  0  0  0  0  0  0  0  0  0
    3.2152    0.5641    6.1320 C   0  0  0  0  0  0  0  0  0  0  0  0
    1.9126    0.4237    6.1014 N   0  0  0  0  0  0  0  0  0  0  0  0
   -6.0927   -1.0285    9.5267 H   0  0  0  0  0  0  0  0  0  0  0  0
   -5.8531   -1.8968   11.0619 H   0  0  0  0  0  0  0  0  0  0  0  0
   -6.1256   -0.1379   11.0674 H   0  0  0  0  0  0  0  0  0  0  0  0
   -4.3754   -0.7588    8.3465 H   0  0  0  0  0  0  0  0  0  0  0  0
   -2.9777    0.1420    6.7786 H   0  0  0  0  0  0  0  0  0  0  0  0
   -0.6908    0.4356    5.9437 H   0  0  0  0  0  0  0  0  0  0  0  0
   -1.5566   -1.0223   10.5917 H   0  0  0  0  0  0  0  0  0  0  0  0
    2.8051   -1.1078   12.1866 H   0  0  0  0  0  0  0  0  0  0  0  0
    3.8100   -1.3649   10.7775 H   0  0  0  0  0  0  0  0  0  0  0  0
    4.0702   -3.5760   11.7979 H   0  0  0  0  0  0  0  0  0  0  0  0
    1.6998   -2.7171   13.2382 H   0  0  0  0  0  0  0  0  0  0  0  0
    2.6268   -4.1761   13.5100 H   0  0  0  0  0  0  0  0  0  0  0  0
    0.7418   -5.2602   10.2229 H   0  0  0  0  0  0  0  0  0  0  0  0
    2.1075   -5.8426   11.1505 H   0  0  0  0  0  0  0  0  0  0  0  0
    3.1297   -4.2924    9.7198 H   0  0  0  0  0  0  0  0  0  0  0  0
    1.9995   -2.6671    8.5931 H   0  0  0  0  0  0  0  0  0  0  0  0
    0.5440   -3.0412    9.5181 H   0  0  0  0  0  0  0  0  0  0  0  0
   -3.2347   -5.4701   10.0028 H   0  0  0  0  0  0  0  0  0  0  0  0
   -4.5437   -4.6326   10.8434 H   0  0  0  0  0  0  0  0  0  0  0  0
   -3.4056   -3.7172    9.8415 H   0  0  0  0  0  0  0  0  0  0  0  0
   -4.0110   -3.5594   13.0629 H   0  0  0  0  0  0  0  0  0  0  0  0
   -1.6908   -2.9208   15.9376 H   0  0  0  0  0  0  0  0  0  0  0  0
   -2.9165   -1.9631   15.1010 H   0  0  0  0  0  0  0  0  0  0  0  0
   -3.2796   -3.6194   15.6156 H   0  0  0  0  0  0  0  0  0  0  0  0
    4.7005    0.4310    7.7793 H   0  0  0  0  0  0  0  0  0  0  0  0
    3.8124    0.7903    5.2564 H   0  0  0  0  0  0  0  0  0  0  0  0
  1  2  1  0
  1 34  1  6
  1 35  1  0
  1 36  1  0
  2  3  2  0
  2  4  1  0
  4  5  1  0
  4 37  1  0
  5  6  2  0
  5 10  1  0
  6  7  1  0
  6 38  1  0
  7  8  2  0
  7 39  1  0
  8  9  1  0
  8 29  1  0
  9 10  2  0
  9 11  1  0
 10 40  1  0
 11 12  2  0
 11 13  1  0
 13 14  1  0
 13 20  1  0
 14 15  1  0
 14 41  1  1
 14 42  1  0
 15 16  1  0
 15 19  1  0
 15 43  1  1
 16 17  1  0
 16 44  1  1
 16 45  1  0
 17 18  1  0
 17 21  1  0
 18 19  1  0
 18 46  1  6
 18 47  1  0
 19 20  1  0
 19 48  1  6
 20 49  1  6
 20 50  1  0
 21 22  2  0
 21 28  1  0
 22 23  1  0
 23 24  1  0
 23 25  2  0
 24 51  1  6
 24 52  1  0
 24 53  1  0
 25 26  1  0
 25 54  1  0
 26 27  1  0
 26 28  2  0
 27 55  1  1
 27 56  1  0
 27 57  1  0
 29 30  1  0
 29 33  1  0
 30 31  2  0
 31 32  1  0
 31 58  1  0
 32 33  2  0
 32 59  1  0
M  END
