set 1: 14
     RDKit          3D

 55 59  0  0  1  0  0  0  0  0999 V2000
   -2.5916   -2.4834   16.0936 C   0  0  1  0  0  0  0  0  0  0  0  0
   -2.3332   -3.8851   15.6262 C   0  0  2  0  0  0  0  0  0  0  0  0
   -2.1685   -3.9023   14.1237 C   0  0  0  0  0  0  0  0  0  0  0  0
   -3.2009   -4.1634   13.2655 C   0  0  0  0  0  0  0  0  0  0  0  0
   -2.8668   -4.5702   11.9600 C   0  0  0  0  0  0  0  0  0  0  0  0
   -3.8684   -4.9395   10.8402 C   0  0  1  0  0  0  0  0  0  0  0  0
   -1.5984   -4.5771   11.5085 N   0  0  0  0  0  0  0  0  0  0  0  0
   -0.5948   -4.2131   12.3776 C   0  0  0  0  0  0  0  0  0  0  0  0
   -0.8756   -3.9276   13.7033 N   0  0  0  0  0  0  0  0  0  0  0  0
    0.7623   -4.2315   11.9120 N   0  0  0  0  0  0  0  0  0  0  0  0
    1.1704   -4.4908   10.5060 C   0  0  2  0  0  0  0  0  0  0  0  0
    2.3676   -3.6135   10.2478 C   0  0  1  0  0  0  0  0  0  0  0  0
    2.0453   -2.5149    9.2816 C   0  0  2  0  0  0  0  0  0  0  0  0
    2.1529   -1.2760   10.1529 N   0  0  0  0  0  0  0  0  0  0  0  0
    3.1240   -1.5230   11.2307 C   0  0  2  0  0  0  0  0  0  0  0  0
    2.9019   -3.0312   11.5568 C   0  0  1  0  0  0  0  0  0  0  0  0
    1.8018   -3.3186   12.4994 C   0  0  2  0  0  0  0  0  0  0  0  0
    1.2374   -0.2955   10.2863 C   0  0  0  0  0  0  0  0  0  0  0  0
    1.2872    0.5189   11.2493 O   0  0  0  0  0  0  0  0  0  0  0  0
    0.1829   -0.3451    9.2428 C   0  0  0  0  0  0  0  0  0  0  0  0
   -1.1964   -0.5656    9.6549 C   0  0  0  0  0  0  0  0  0  0  0  0
   -1.5785   -0.7618   10.9749 F   0  0  0  0  0  0  0  0  0  0  0  0
   -2.2132   -0.6087    8.7414 C   0  0  0  0  0  0  0  0  0  0  0  0
   -1.8601   -0.5094    7.3309 C   0  0  0  0  0  0  0  0  0  0  0  0
   -0.5320   -0.3242    6.9985 C   0  0  0  0  0  0  0  0  0  0  0  0
    0.4698   -0.0818    7.9111 C   0  0  0  0  0  0  0  0  0  0  0  0
    1.7920    0.2338    7.4004 N   0  0  0  0  0  0  0  0  0  0  0  0
    2.7091    0.9351    8.1233 N   0  0  0  0  0  0  0  0  0  0  0  0
    3.7718    0.9161    7.4083 C   0  0  0  0  0  0  0  0  0  0  0  0
    3.5033    0.3363    6.1843 C   0  0  0  0  0  0  0  0  0  0  0  0
    2.2460   -0.0112    6.1420 N   0  0  0  0  0  0  0  0  0  0  0  0
   -2.7094   -2.4777   17.1772 H   0  0  0  0  0  0  0  0  0  0  0  0
   -1.7513   -1.8471   15.8161 H   0  0  0  0  0  0  0  0  0  0  0  0
   -3.5020   -2.1069   15.6272 H   0  0  0  0  0  0  0  0  0  0  0  0
   -3.1701   -4.5126   15.9312 H   0  0  0  0  0  0  0  0  0  0  0  0
   -1.4356   -4.2519   16.1253 H   0  0  0  0  0  0  0  0  0  0  0  0
   -4.2254   -4.1764   13.6055 H   0  0  0  0  0  0  0  0  0  0  0  0
   -3.3665   -5.1223    9.8891 H   0  0  0  0  0  0  0  0  0  0  0  0
   -4.4169   -5.8398   11.1147 H   0  0  0  0  0  0  0  0  0  0  0  0
   -4.5822   -4.1288   10.6981 H   0  0  0  0  0  0  0  0  0  0  0  0
    0.3396   -4.3243    9.8198 H   0  0  0  0  0  0  0  0  0  0  0  0
    1.4400   -5.5442   10.4260 H   0  0  0  0  0  0  0  0  0  0  0  0
    3.1430   -4.2321    9.7928 H   0  0  0  0  0  0  0  0  0  0  0  0
    1.0861   -2.6522    8.7841 H   0  0  0  0  0  0  0  0  0  0  0  0
    2.8044   -2.4480    8.5011 H   0  0  0  0  0  0  0  0  0  0  0  0
    3.0218   -0.9025   12.1230 H   0  0  0  0  0  0  0  0  0  0  0  0
    4.1252   -1.3556   10.8331 H   0  0  0  0  0  0  0  0  0  0  0  0
    3.8209   -3.5231   11.8788 H   0  0  0  0  0  0  0  0  0  0  0  0
    2.1861   -3.7684   13.4154 H   0  0  0  0  0  0  0  0  0  0  0  0
    1.3035   -2.3958   12.8029 H   0  0  0  0  0  0  0  0  0  0  0  0
   -3.2339   -0.7675    9.0575 H   0  0  0  0  0  0  0  0  0  0  0  0
   -2.6170   -0.5966    6.5648 H   0  0  0  0  0  0  0  0  0  0  0  0
   -0.2999   -0.2404    5.9459 H   0  0  0  0  0  0  0  0  0  0  0  0
    4.6916    1.3567    7.7657 H   0  0  0  0  0  0  0  0  0  0  0  0
    4.1543    0.2029    5.3322 H   0  0  0  0  0  0  0  0  0  0  0  0
  1  2  1  0
  1 32  1  1
  1 33  1  0
  1 34  1  0
  2  3  1  0
  2 35  1  6
  2 36  1  0
  3  4  2  0
  3  9  1  0
  4  5  1  0
  4 37  1  0
  5  6  1  0
  5  7  2  0
  6 38  1  6
  6 39  1  0
  6 40  1  0
  7  8  1  0
  8  9  2  0
  8 10  1  0
 10 11  1  0
 10 17  1  0
 11 12  1  0
 11 41  1  6
 11 42  1  0
 12 13  1  0
 12 16  1  0
 12 43  1  6
 13 14  1  0
 13 44  1  6
 13 45  1  0
 14 15  1  0
 14 18  1  0
 15 16  1  0
 15 46  1  1
 15 47  1  0
 16 17  1  0
 16 48  1  1
 17 49  1  1
 17 50  1  0
 18 19  2  0
 18 20  1  0
 20 21  2  0
 20 26  1  0
 21 22  1  0
 21 23  1  0
 23 24  2  0
 23 51  1  0
 24 25  1  0
 24 52  1  0
 25 26  2  0
 25 53  1  0
 26 27  1  0
 27 28  1  0
 27 31  1  0
 28 29  2  0
 29 30  1  0
 29 54  1  0
 30 31  2  0
 30 55  1  0
M  END
