set 1: 9
     RDKit          3D

 48 52  0  0  1  0  0  0  0  0999 V2000
    1.2872    0.5189   11.2493 O   0  0  0  0  0  0  0  0  0  0  0  0
    1.2374   -0.2955   10.2863 C   0  0  0  0  0  0  0  0  0  0  0  0
    0.1829   -0.3451    9.2428 C   0  0  0  0  0  0  0  0  0  0  0  0
   -1.1964   -0.5656    9.6549 C   0  0  0  0  0  0  0  0  0  0  0  0
   -1.5785   -0.7618   10.9749 F   0  0  0  0  0  0  0  0  0  0  0  0
   -2.2132   -0.6087    8.7414 C   0  0  0  0  0  0  0  0  0  0  0  0
   -1.8601   -0.5094    7.3309 C   0  0  0  0  0  0  0  0  0  0  0  0
   -0.5320   -0.3242    6.9985 C   0  0  0  0  0  0  0  0  0  0  0  0
    0.4698   -0.0818    7.9111 C   0  0  0  0  0  0  0  0  0  0  0  0
    1.7920    0.2338    7.4004 N   0  0  0  0  0  0  0  0  0  0  0  0
    2.2460   -0.0112    6.1420 N   0  0  0  0  0  0  0  0  0  0  0  0
    3.5033    0.3363    6.1843 C   0  0  0  0  0  0  0  0  0  0  0  0
    3.7718    0.9161    7.4083 C   0  0  0  0  0  0  0  0  0  0  0  0
    2.7091    0.9351    8.1233 N   0  0  0  0  0  0  0  0  0  0  0  0
    2.1529   -1.2760   10.1529 N   0  0  0  0  0  0  0  0  0  0  0  0
    2.0453   -2.5149    9.2816 C   0  0  2  0  0  0  0  0  0  0  0  0
    2.3676   -3.6135   10.2478 C   0  0  2  0  0  0  0  0  0  0  0  0
    1.1704   -4.4908   10.5060 C   0  0  2  0  0  0  0  0  0  0  0  0
    0.7623   -4.2315   11.9121 N   0  0  0  0  0  0  0  0  0  0  0  0
    1.8018   -3.3186   12.4994 C   0  0  2  0  0  0  0  0  0  0  0  0
    2.9019   -3.0312   11.5568 C   0  0  2  0  0  0  0  0  0  0  0  0
    3.1240   -1.5230   11.2307 C   0  0  2  0  0  0  0  0  0  0  0  0
   -0.5948   -4.2131   12.3776 C   0  0  0  0  0  0  0  0  0  0  0  0
   -0.8756   -3.9276   13.7033 N   0  0  0  0  0  0  0  0  0  0  0  0
   -2.1685   -3.9023   14.1237 C   0  0  0  0  0  0  0  0  0  0  0  0
   -3.2009   -4.1634   13.2655 C   0  0  0  0  0  0  0  0  0  0  0  0
   -2.8668   -4.5702   11.9600 C   0  0  0  0  0  0  0  0  0  0  0  0
   -1.5984   -4.5771   11.5085 N   0  0  0  0  0  0  0  0  0  0  0  0
   -4.5894   -4.1147   13.7141 N   0  0  0  0  0  0  0  0  0  0  0  0
   -5.4495   -4.3625   12.8778 O   0  0  0  0  0  0  0  0  0  0  0  0
   -4.7806   -3.8299   14.8901 O   0  0  0  0  0  0  0  0  0  0  0  0
   -3.2344   -0.7667    9.0567 H   0  0  0  0  0  0  0  0  0  0  0  0
   -2.6170   -0.5968    6.5648 H   0  0  0  0  0  0  0  0  0  0  0  0
   -0.2998   -0.2410    5.9458 H   0  0  0  0  0  0  0  0  0  0  0  0
    4.1541    0.2034    5.3320 H   0  0  0  0  0  0  0  0  0  0  0  0
    4.6916    1.3576    7.7649 H   0  0  0  0  0  0  0  0  0  0  0  0
    2.8046   -2.4479    8.5013 H   0  0  0  0  0  0  0  0  0  0  0  0
    1.0864   -2.6522    8.7835 H   0  0  0  0  0  0  0  0  0  0  0  0
    3.1430   -4.2320    9.7926 H   0  0  0  0  0  0  0  0  0  0  0  0
    1.4408   -5.5440   10.4259 H   0  0  0  0  0  0  0  0  0  0  0  0
    0.3404   -4.3250    9.8185 H   0  0  0  0  0  0  0  0  0  0  0  0
    2.1871   -3.7689   13.4148 H   0  0  0  0  0  0  0  0  0  0  0  0
    1.3050   -2.3954   12.8039 H   0  0  0  0  0  0  0  0  0  0  0  0
    3.8209   -3.5230   11.8788 H   0  0  0  0  0  0  0  0  0  0  0  0
    3.0225   -0.9023   12.1228 H   0  0  0  0  0  0  0  0  0  0  0  0
    4.1251   -1.3557   10.8328 H   0  0  0  0  0  0  0  0  0  0  0  0
   -2.3477   -3.6380   15.1554 H   0  0  0  0  0  0  0  0  0  0  0  0
   -3.6354   -4.8391   11.2507 H   0  0  0  0  0  0  0  0  0  0  0  0
  1  2  2  0
  2  3  1  0
  2 15  1  0
  3  4  2  0
  3  9  1  0
  4  5  1  0
  4  6  1  0
  6  7  2  0
  6 32  1  0
  7  8  1  0
  7 33  1  0
  8  9  2  0
  8 34  1  0
  9 10  1  0
 10 11  1  0
 10 14  1  0
 11 12  2  0
 12 13  1  0
 12 35  1  0
 13 14  2  0
 13 36  1  0
 15 16  1  0
 15 22  1  0
 16 17  1  0
 16 37  1  6
 16 38  1  0
 17 18  1  0
 17 21  1  0
 17 39  1  6
 18 19  1  0
 18 40  1  1
 18 41  1  0
 19 20  1  0
 19 23  1  0
 20 21  1  0
 20 42  1  1
 20 43  1  0
 21 22  1  0
 21 44  1  1
 22 45  1  1
 22 46  1  0
 23 24  2  0
 23 28  1  0
 24 25  1  0
 25 26  2  0
 25 47  1  0
 26 27  1  0
 26 29  1  0
 27 28  2  0
 27 48  1  0
 29 30  2  0
 29 31  1  0
M  CHG  2  29   1  31  -1
M  END
