set 1: 4
     RDKit          3D

 56 61  0  0  1  0  0  0  0  0999 V2000
   -3.9707   -4.2080   10.8658 C   0  0  1  0  0  0  0  0  0  0  0  0
   -2.9221   -4.3503   11.9450 C   0  0  0  0  0  0  0  0  0  0  0  0
   -3.1979   -4.1927   13.2752 C   0  0  0  0  0  0  0  0  0  0  0  0
   -2.1131   -3.9249   14.1314 C   0  0  0  0  0  0  0  0  0  0  0  0
   -0.8353   -3.9542   13.7081 N   0  0  0  0  0  0  0  0  0  0  0  0
   -0.5948   -4.2131   12.3776 C   0  0  0  0  0  0  0  0  0  0  0  0
   -1.6428   -4.3576   11.4840 N   0  0  0  0  0  0  0  0  0  0  0  0
    0.7623   -4.2315   11.9120 N   0  0  0  0  0  0  0  0  0  0  0  0
    1.8018   -3.3186   12.4994 C   0  0  2  0  0  0  0  0  0  0  0  0
    2.9019   -3.0312   11.5568 C   0  0  2  0  0  0  0  0  0  0  0  0
    3.1240   -1.5230   11.2307 C   0  0  2  0  0  0  0  0  0  0  0  0
    2.1529   -1.2760   10.1529 N   0  0  0  0  0  0  0  0  0  0  0  0
    2.0453   -2.5149    9.2816 C   0  0  2  0  0  0  0  0  0  0  0  0
    2.3676   -3.6135   10.2478 C   0  0  2  0  0  0  0  0  0  0  0  0
    1.1704   -4.4908   10.5060 C   0  0  2  0  0  0  0  0  0  0  0  0
    1.2374   -0.2955   10.2863 C   0  0  0  0  0  0  0  0  0  0  0  0
    1.2872    0.5189   11.2493 O   0  0  0  0  0  0  0  0  0  0  0  0
    0.1829   -0.3451    9.2428 C   0  0  0  0  0  0  0  0  0  0  0  0
   -1.1964   -0.5656    9.6549 C   0  0  0  0  0  0  0  0  0  0  0  0
   -1.5785   -0.7618   10.9749 F   0  0  0  0  0  0  0  0  0  0  0  0
   -2.2132   -0.6087    8.7414 C   0  0  0  0  0  0  0  0  0  0  0  0
   -1.8601   -0.5094    7.3309 C   0  0  0  0  0  0  0  0  0  0  0  0
   -0.5320   -0.3242    6.9985 C   0  0  0  0  0  0  0  0  0  0  0  0
    0.4698   -0.0818    7.9111 C   0  0  0  0  0  0  0  0  0  0  0  0
    1.7920    0.2338    7.4004 N   0  0  0  0  0  0  0  0  0  0  0  0
    2.2460   -0.0112    6.1420 N   0  0  0  0  0  0  0  0  0  0  0  0
    3.5033    0.3363    6.1843 C   0  0  0  0  0  0  0  0  0  0  0  0
    3.7718    0.9161    7.4083 C   0  0  0  0  0  0  0  0  0  0  0  0
    2.7091    0.9351    8.1233 N   0  0  0  0  0  0  0  0  0  0  0  0
   -2.3346   -3.6428   15.5878 C   0  0  2  0  0  0  0  0  0  0  0  0
   -1.2345   -3.9731   16.5710 C   0  0  2  0  0  0  0  0  0  0  0  0
   -2.4961   -4.8057   16.5404 C   0  0  2  0  0  0  0  0  0  0  0  0
   -4.0012   -3.1804   10.5046 H   0  0  0  0  0  0  0  0  0  0  0  0
   -3.7416   -4.8624   10.0242 H   0  0  0  0  0  0  0  0  0  0  0  0
   -4.9573   -4.4744   11.2443 H   0  0  0  0  0  0  0  0  0  0  0  0
   -4.2113   -4.1383   13.6425 H   0  0  0  0  0  0  0  0  0  0  0  0
    2.1865   -3.7683   13.4153 H   0  0  0  0  0  0  0  0  0  0  0  0
    1.3040   -2.3956   12.8030 H   0  0  0  0  0  0  0  0  0  0  0  0
    3.8209   -3.5232   11.8787 H   0  0  0  0  0  0  0  0  0  0  0  0
    4.1251   -1.3559   10.8328 H   0  0  0  0  0  0  0  0  0  0  0  0
    3.0222   -0.9022   12.1228 H   0  0  0  0  0  0  0  0  0  0  0  0
    2.8043   -2.4481    8.5011 H   0  0  0  0  0  0  0  0  0  0  0  0
    1.0861   -2.6523    8.7839 H   0  0  0  0  0  0  0  0  0  0  0  0
    3.1431   -4.2320    9.7927 H   0  0  0  0  0  0  0  0  0  0  0  0
    0.3402   -4.3249    9.8189 H   0  0  0  0  0  0  0  0  0  0  0  0
    1.4408   -5.5440   10.4260 H   0  0  0  0  0  0  0  0  0  0  0  0
   -3.2342   -0.7672    9.0570 H   0  0  0  0  0  0  0  0  0  0  0  0
   -2.6170   -0.5967    6.5648 H   0  0  0  0  0  0  0  0  0  0  0  0
   -0.2999   -0.2409    5.9458 H   0  0  0  0  0  0  0  0  0  0  0  0
    4.1542    0.2029    5.3322 H   0  0  0  0  0  0  0  0  0  0  0  0
    4.6916    1.3567    7.7657 H   0  0  0  0  0  0  0  0  0  0  0  0
   -2.9324   -2.7429   15.7480 H   0  0  0  0  0  0  0  0  0  0  0  0
   -1.0648   -3.3036   17.4170 H   0  0  0  0  0  0  0  0  0  0  0  0
   -0.3058   -4.4089   16.1964 H   0  0  0  0  0  0  0  0  0  0  0  0
   -2.4475   -5.8224   16.1445 H   0  0  0  0  0  0  0  0  0  0  0  0
   -3.2066   -4.7171   17.3652 H   0  0  0  0  0  0  0  0  0  0  0  0
  1  2  1  0
  1 33  1  6
  1 34  1  0
  1 35  1  0
  2  3  2  0
  2  7  1  0
  3  4  1  0
  3 36  1  0
  4  5  2  0
  4 30  1  0
  5  6  1  0
  6  7  2  0
  6  8  1  0
  8  9  1  0
  8 15  1  0
  9 10  1  0
  9 37  1  1
  9 38  1  0
 10 11  1  0
 10 14  1  0
 10 39  1  1
 11 12  1  0
 11 40  1  6
 11 41  1  0
 12 13  1  0
 12 16  1  0
 13 14  1  0
 13 42  1  6
 13 43  1  0
 14 15  1  0
 14 44  1  6
 15 45  1  6
 15 46  1  0
 16 17  2  0
 16 18  1  0
 18 19  2  0
 18 24  1  0
 19 20  1  0
 19 21  1  0
 21 22  2  0
 21 47  1  0
 22 23  1  0
 22 48  1  0
 23 24  2  0
 23 49  1  0
 24 25  1  0
 25 26  1  0
 25 29  1  0
 26 27  2  0
 27 28  1  0
 27 50  1  0
 28 29  2  0
 28 51  1  0
 30 31  1  0
 30 32  1  0
 30 52  1  6
 31 32  1  0
 31 53  1  1
 31 54  1  0
 32 55  1  6
 32 56  1  0
M  END
