set 1: 5
     RDKit          3D

 49 53  0  0  1  0  0  0  0  0999 V2000
   -3.9684   -4.4718   10.8829 C   0  0  1  0  0  0  0  0  0  0  0  0
   -2.9159   -4.4711   11.9677 C   0  0  0  0  0  0  0  0  0  0  0  0
   -1.6370   -4.4807   11.5059 N   0  0  0  0  0  0  0  0  0  0  0  0
   -0.5948   -4.2131   12.3776 C   0  0  0  0  0  0  0  0  0  0  0  0
   -0.8444   -3.8322   13.6767 N   0  0  0  0  0  0  0  0  0  0  0  0
   -2.1226   -3.8045   14.0989 C   0  0  0  0  0  0  0  0  0  0  0  0
   -3.1974   -4.1922   13.2767 C   0  0  0  0  0  0  0  0  0  0  0  0
   -4.7997   -4.2985   13.9782 Cl  0  0  0  0  0  0  0  0  0  0  0  0
    0.7623   -4.2315   11.9120 N   0  0  0  0  0  0  0  0  0  0  0  0
    1.1704   -4.4908   10.5060 C   0  0  2  0  0  0  0  0  0  0  0  0
    2.3676   -3.6135   10.2478 C   0  0  1  0  0  0  0  0  0  0  0  0
    2.0453   -2.5149    9.2816 C   0  0  2  0  0  0  0  0  0  0  0  0
    2.1529   -1.2760   10.1529 N   0  0  0  0  0  0  0  0  0  0  0  0
    3.1240   -1.5230   11.2307 C   0  0  2  0  0  0  0  0  0  0  0  0
    2.9019   -3.0312   11.5568 C   0  0  1  0  0  0  0  0  0  0  0  0
    1.8018   -3.3186   12.4994 C   0  0  2  0  0  0  0  0  0  0  0  0
    1.2374   -0.2955   10.2863 C   0  0  0  0  0  0  0  0  0  0  0  0
    1.2872    0.5189   11.2493 O   0  0  0  0  0  0  0  0  0  0  0  0
    0.1829   -0.3451    9.2428 C   0  0  0  0  0  0  0  0  0  0  0  0
   -1.1964   -0.5656    9.6549 C   0  0  0  0  0  0  0  0  0  0  0  0
   -1.5785   -0.7618   10.9749 F   0  0  0  0  0  0  0  0  0  0  0  0
   -2.2132   -0.6087    8.7414 C   0  0  0  0  0  0  0  0  0  0  0  0
   -1.8601   -0.5094    7.3309 C   0  0  0  0  0  0  0  0  0  0  0  0
   -0.5320   -0.3242    6.9985 C   0  0  0  0  0  0  0  0  0  0  0  0
    0.4698   -0.0818    7.9111 C   0  0  0  0  0  0  0  0  0  0  0  0
    1.7920    0.2338    7.4004 N   0  0  0  0  0  0  0  0  0  0  0  0
    2.7091    0.9351    8.1233 N   0  0  0  0  0  0  0  0  0  0  0  0
    3.7718    0.9161    7.4083 C   0  0  0  0  0  0  0  0  0  0  0  0
    3.5033    0.3363    6.1843 C   0  0  0  0  0  0  0  0  0  0  0  0
    2.2460   -0.0112    6.1420 N   0  0  0  0  0  0  0  0  0  0  0  0
   -3.7545   -3.6936   10.1505 H   0  0  0  0  0  0  0  0  0  0  0  0
   -3.9678   -5.4332   10.3699 H   0  0  0  0  0  0  0  0  0  0  0  0
   -4.9693   -4.2981   11.2749 H   0  0  0  0  0  0  0  0  0  0  0  0
   -2.2826   -3.5449   15.1349 H   0  0  0  0  0  0  0  0  0  0  0  0
    0.3407   -4.3248    9.8181 H   0  0  0  0  0  0  0  0  0  0  0  0
    1.4412   -5.5439   10.4252 H   0  0  0  0  0  0  0  0  0  0  0  0
    3.1433   -4.2319    9.7927 H   0  0  0  0  0  0  0  0  0  0  0  0
    1.0866   -2.6520    8.7829 H   0  0  0  0  0  0  0  0  0  0  0  0
    2.8049   -2.4479    8.5016 H   0  0  0  0  0  0  0  0  0  0  0  0
    3.0225   -0.9018   12.1227 H   0  0  0  0  0  0  0  0  0  0  0  0
    4.1251   -1.3559   10.8327 H   0  0  0  0  0  0  0  0  0  0  0  0
    3.8212   -3.5229   11.8784 H   0  0  0  0  0  0  0  0  0  0  0  0
    2.1872   -3.7679   13.4153 H   0  0  0  0  0  0  0  0  0  0  0  0
    1.3048   -2.3951   12.8030 H   0  0  0  0  0  0  0  0  0  0  0  0
   -3.2345   -0.7665    9.0566 H   0  0  0  0  0  0  0  0  0  0  0  0
   -2.6171   -0.5962    6.5648 H   0  0  0  0  0  0  0  0  0  0  0  0
   -0.3001   -0.2404    5.9458 H   0  0  0  0  0  0  0  0  0  0  0  0
    4.6916    1.3580    7.7645 H   0  0  0  0  0  0  0  0  0  0  0  0
    4.1542    0.2042    5.3318 H   0  0  0  0  0  0  0  0  0  0  0  0
  1  2  1  0
  1 31  1  6
  1 32  1  0
  1 33  1  0
  2  3  2  0
  2  7  1  0
  3  4  1  0
  4  5  2  0
  4  9  1  0
  5  6  1  0
  6  7  2  0
  6 34  1  0
  7  8  1  0
  9 10  1  0
  9 16  1  0
 10 11  1  0
 10 35  1  6
 10 36  1  0
 11 12  1  0
 11 15  1  0
 11 37  1  6
 12 13  1  0
 12 38  1  6
 12 39  1  0
 13 14  1  0
 13 17  1  0
 14 15  1  0
 14 40  1  1
 14 41  1  0
 15 16  1  0
 15 42  1  1
 16 43  1  1
 16 44  1  0
 17 18  2  0
 17 19  1  0
 19 20  2  0
 19 25  1  0
 20 21  1  0
 20 22  1  0
 22 23  2  0
 22 45  1  0
 23 24  1  0
 23 46  1  0
 24 25  2  0
 24 47  1  0
 25 26  1  0
 26 27  1  0
 26 30  1  0
 27 28  2  0
 28 29  1  0
 28 48  1  0
 29 30  2  0
 29 49  1  0
M  END
