set 1: 16
     RDKit          3D

 53 57  0  0  1  0  0  0  0  0999 V2000
   -1.3093   -3.0230   16.2464 C   0  0  1  0  0  0  0  0  0  0  0  0
   -2.3876   -3.4167   15.3990 O   0  0  0  0  0  0  0  0  0  0  0  0
   -2.1204   -3.8283   14.1063 C   0  0  0  0  0  0  0  0  0  0  0  0
   -3.1975   -4.1923   13.2764 C   0  0  0  0  0  0  0  0  0  0  0  0
   -2.9175   -4.4472   11.9622 C   0  0  0  0  0  0  0  0  0  0  0  0
   -3.9696   -4.4192   10.8774 C   0  0  1  0  0  0  0  0  0  0  0  0
   -1.6385   -4.4563   11.5005 N   0  0  0  0  0  0  0  0  0  0  0  0
   -0.5948   -4.2131   12.3776 C   0  0  0  0  0  0  0  0  0  0  0  0
   -0.8423   -3.8563   13.6840 N   0  0  0  0  0  0  0  0  0  0  0  0
    0.7623   -4.2315   11.9121 N   0  0  0  0  0  0  0  0  0  0  0  0
    1.8018   -3.3186   12.4994 C   0  0  2  0  0  0  0  0  0  0  0  0
    2.9019   -3.0312   11.5568 C   0  0  2  0  0  0  0  0  0  0  0  0
    3.1240   -1.5230   11.2307 C   0  0  2  0  0  0  0  0  0  0  0  0
    2.1529   -1.2760   10.1529 N   0  0  0  0  0  0  0  0  0  0  0  0
    2.0453   -2.5149    9.2816 C   0  0  2  0  0  0  0  0  0  0  0  0
    2.3676   -3.6135   10.2478 C   0  0  2  0  0  0  0  0  0  0  0  0
    1.1704   -4.4908   10.5060 C   0  0  2  0  0  0  0  0  0  0  0  0
    1.2374   -0.2955   10.2863 C   0  0  0  0  0  0  0  0  0  0  0  0
    1.2872    0.5189   11.2493 O   0  0  0  0  0  0  0  0  0  0  0  0
    0.1829   -0.3451    9.2428 C   0  0  0  0  0  0  0  0  0  0  0  0
   -1.1964   -0.5656    9.6549 C   0  0  0  0  0  0  0  0  0  0  0  0
   -1.5785   -0.7618   10.9749 F   0  0  0  0  0  0  0  0  0  0  0  0
   -2.2132   -0.6087    8.7414 C   0  0  0  0  0  0  0  0  0  0  0  0
   -1.8601   -0.5094    7.3309 C   0  0  0  0  0  0  0  0  0  0  0  0
   -0.5320   -0.3242    6.9985 C   0  0  0  0  0  0  0  0  0  0  0  0
    0.4698   -0.0818    7.9111 C   0  0  0  0  0  0  0  0  0  0  0  0
    1.7920    0.2338    7.4004 N   0  0  0  0  0  0  0  0  0  0  0  0
    2.2460   -0.0112    6.1420 N   0  0  0  0  0  0  0  0  0  0  0  0
    3.5033    0.3363    6.1843 C   0  0  0  0  0  0  0  0  0  0  0  0
    3.7718    0.9161    7.4083 C   0  0  0  0  0  0  0  0  0  0  0  0
    2.7091    0.9351    8.1233 N   0  0  0  0  0  0  0  0  0  0  0  0
   -1.7023   -2.7201   17.2166 H   0  0  0  0  0  0  0  0  0  0  0  0
   -0.6119   -3.8456   16.4121 H   0  0  0  0  0  0  0  0  0  0  0  0
   -0.7637   -2.1748   15.8297 H   0  0  0  0  0  0  0  0  0  0  0  0
   -4.2032   -4.2626   13.6646 H   0  0  0  0  0  0  0  0  0  0  0  0
   -4.9635   -4.2336   11.2868 H   0  0  0  0  0  0  0  0  0  0  0  0
   -3.7489   -3.6317   10.1557 H   0  0  0  0  0  0  0  0  0  0  0  0
   -3.9974   -5.3716   10.3466 H   0  0  0  0  0  0  0  0  0  0  0  0
    2.2334   -3.7943   13.3809 H   0  0  0  0  0  0  0  0  0  0  0  0
    1.3128   -2.3870   12.7895 H   0  0  0  0  0  0  0  0  0  0  0  0
    3.8397   -3.4955   11.8667 H   0  0  0  0  0  0  0  0  0  0  0  0
    4.1370   -1.4077   10.8433 H   0  0  0  0  0  0  0  0  0  0  0  0
    3.0027   -0.9089   12.1246 H   0  0  0  0  0  0  0  0  0  0  0  0
    2.7869   -2.4916    8.4823 H   0  0  0  0  0  0  0  0  0  0  0  0
    1.0362   -2.6461    8.8908 H   0  0  0  0  0  0  0  0  0  0  0  0
    3.0901   -4.2782    9.7713 H   0  0  0  0  0  0  0  0  0  0  0  0
    0.3501   -4.2650    9.8232 H   0  0  0  0  0  0  0  0  0  0  0  0
    1.3934   -5.5514   10.3828 H   0  0  0  0  0  0  0  0  0  0  0  0
   -3.2352   -0.7096    9.0767 H   0  0  0  0  0  0  0  0  0  0  0  0
   -2.6285   -0.5811    6.5753 H   0  0  0  0  0  0  0  0  0  0  0  0
   -0.2447   -0.3760    5.9578 H   0  0  0  0  0  0  0  0  0  0  0  0
    4.1843    0.1816    5.3604 H   0  0  0  0  0  0  0  0  0  0  0  0
    4.7177    1.3048    7.7559 H   0  0  0  0  0  0  0  0  0  0  0  0
  1  2  1  0
  1 32  1  1
  1 33  1  0
  1 34  1  0
  2  3  1  0
  3  4  2  0
  3  9  1  0
  4  5  1  0
  4 35  1  0
  5  6  1  0
  5  7  2  0
  6 36  1  1
  6 37  1  0
  6 38  1  0
  7  8  1  0
  8  9  2  0
  8 10  1  0
 10 11  1  0
 10 17  1  0
 11 12  1  0
 11 39  1  1
 11 40  1  0
 12 13  1  0
 12 16  1  0
 12 41  1  1
 13 14  1  0
 13 42  1  6
 13 43  1  0
 14 15  1  0
 14 18  1  0
 15 16  1  0
 15 44  1  6
 15 45  1  0
 16 17  1  0
 16 46  1  6
 17 47  1  6
 17 48  1  0
 18 19  2  0
 18 20  1  0
 20 21  2  0
 20 26  1  0
 21 22  1  0
 21 23  1  0
 23 24  2  0
 23 49  1  0
 24 25  1  0
 24 50  1  0
 25 26  2  0
 25 51  1  0
 26 27  1  0
 27 28  1  0
 27 31  1  0
 28 29  2  0
 29 30  1  0
 29 52  1  0
 30 31  2  0
 30 53  1  0
M  END
