set 1: 18
     RDKit          3D

 56 61  0  0  1  0  0  0  0  0999 V2000
   -3.9709   -4.3137   10.8695 C   0  0  1  0  0  0  0  0  0  0  0  0
   -2.9201   -4.3989   11.9526 C   0  0  0  0  0  0  0  0  0  0  0  0
   -3.1977   -4.1925   13.2758 C   0  0  0  0  0  0  0  0  0  0  0  0
   -2.1164   -3.8763   14.1198 C   0  0  0  0  0  0  0  0  0  0  0  0
   -0.8384   -3.9050   13.6970 N   0  0  0  0  0  0  0  0  0  0  0  0
   -0.5948   -4.2131   12.3776 C   0  0  0  0  0  0  0  0  0  0  0  0
   -1.6410   -4.4071   11.4913 N   0  0  0  0  0  0  0  0  0  0  0  0
    0.7623   -4.2315   11.9120 N   0  0  0  0  0  0  0  0  0  0  0  0
    1.1704   -4.4908   10.5060 C   0  0  2  0  0  0  0  0  0  0  0  0
    2.3676   -3.6135   10.2478 C   0  0  1  0  0  0  0  0  0  0  0  0
    2.0453   -2.5149    9.2816 C   0  0  2  0  0  0  0  0  0  0  0  0
    2.1529   -1.2760   10.1529 N   0  0  0  0  0  0  0  0  0  0  0  0
    3.1240   -1.5230   11.2307 C   0  0  2  0  0  0  0  0  0  0  0  0
    2.9019   -3.0312   11.5568 C   0  0  1  0  0  0  0  0  0  0  0  0
    1.8018   -3.3186   12.4994 C   0  0  2  0  0  0  0  0  0  0  0  0
    1.2374   -0.2955   10.2863 C   0  0  0  0  0  0  0  0  0  0  0  0
    1.2872    0.5189   11.2493 O   0  0  0  0  0  0  0  0  0  0  0  0
    0.1829   -0.3451    9.2428 C   0  0  0  0  0  0  0  0  0  0  0  0
   -1.1964   -0.5656    9.6549 C   0  0  0  0  0  0  0  0  0  0  0  0
   -1.5785   -0.7618   10.9749 F   0  0  0  0  0  0  0  0  0  0  0  0
   -2.2132   -0.6087    8.7414 C   0  0  0  0  0  0  0  0  0  0  0  0
   -1.8601   -0.5094    7.3309 C   0  0  0  0  0  0  0  0  0  0  0  0
   -0.5320   -0.3242    6.9985 C   0  0  0  0  0  0  0  0  0  0  0  0
    0.4698   -0.0818    7.9111 C   0  0  0  0  0  0  0  0  0  0  0  0
    1.7920    0.2338    7.4004 N   0  0  0  0  0  0  0  0  0  0  0  0
    2.2460   -0.0112    6.1420 N   0  0  0  0  0  0  0  0  0  0  0  0
    3.5033    0.3363    6.1843 C   0  0  0  0  0  0  0  0  0  0  0  0
    3.7718    0.9161    7.4083 C   0  0  0  0  0  0  0  0  0  0  0  0
    2.7091    0.9351    8.1233 N   0  0  0  0  0  0  0  0  0  0  0  0
   -2.3414   -3.5395   15.5641 C   0  0  0  0  0  0  0  0  0  0  0  0
   -1.4909   -3.2358   16.6152 C   0  0  0  0  0  0  0  0  0  0  0  0
   -2.3018   -3.0125   17.7301 C   0  0  0  0  0  0  0  0  0  0  0  0
   -3.6097   -3.1903   17.3079 C   0  0  0  0  0  0  0  0  0  0  0  0
   -3.6316   -3.5112   15.9881 O   0  0  0  0  0  0  0  0  0  0  0  0
   -3.7265   -4.9882   10.0483 H   0  0  0  0  0  0  0  0  0  0  0  0
   -4.9512   -4.5909   11.2561 H   0  0  0  0  0  0  0  0  0  0  0  0
   -4.0246   -3.2985   10.4770 H   0  0  0  0  0  0  0  0  0  0  0  0
   -4.2116   -4.1374   13.6414 H   0  0  0  0  0  0  0  0  0  0  0  0
    0.3401   -4.3247    9.8191 H   0  0  0  0  0  0  0  0  0  0  0  0
    1.4403   -5.5441   10.4259 H   0  0  0  0  0  0  0  0  0  0  0  0
    3.1430   -4.2321    9.7926 H   0  0  0  0  0  0  0  0  0  0  0  0
    1.0862   -2.6522    8.7838 H   0  0  0  0  0  0  0  0  0  0  0  0
    2.8043   -2.4479    8.5011 H   0  0  0  0  0  0  0  0  0  0  0  0
    3.0222   -0.9023   12.1229 H   0  0  0  0  0  0  0  0  0  0  0  0
    4.1251   -1.3556   10.8328 H   0  0  0  0  0  0  0  0  0  0  0  0
    3.8208   -3.5231   11.8788 H   0  0  0  0  0  0  0  0  0  0  0  0
    2.1866   -3.7687   13.4151 H   0  0  0  0  0  0  0  0  0  0  0  0
    1.3041   -2.3956   12.8034 H   0  0  0  0  0  0  0  0  0  0  0  0
   -3.2342   -0.7672    9.0570 H   0  0  0  0  0  0  0  0  0  0  0  0
   -2.6170   -0.5972    6.5648 H   0  0  0  0  0  0  0  0  0  0  0  0
   -0.2998   -0.2412    5.9458 H   0  0  0  0  0  0  0  0  0  0  0  0
    4.1542    0.2030    5.3321 H   0  0  0  0  0  0  0  0  0  0  0  0
    4.6915    1.3569    7.7657 H   0  0  0  0  0  0  0  0  0  0  0  0
   -0.4105   -3.1829   16.5760 H   0  0  0  0  0  0  0  0  0  0  0  0
   -1.9765   -2.7518   18.7290 H   0  0  0  0  0  0  0  0  0  0  0  0
   -4.5688   -3.1248   17.8070 H   0  0  0  0  0  0  0  0  0  0  0  0
  1  2  1  0
  1 35  1  6
  1 36  1  0
  1 37  1  0
  2  3  2  0
  2  7  1  0
  3  4  1  0
  3 38  1  0
  4  5  2  0
  4 30  1  0
  5  6  1  0
  6  7  2  0
  6  8  1  0
  8  9  1  0
  8 15  1  0
  9 10  1  0
  9 39  1  6
  9 40  1  0
 10 11  1  0
 10 14  1  0
 10 41  1  6
 11 12  1  0
 11 42  1  6
 11 43  1  0
 12 13  1  0
 12 16  1  0
 13 14  1  0
 13 44  1  1
 13 45  1  0
 14 15  1  0
 14 46  1  1
 15 47  1  1
 15 48  1  0
 16 17  2  0
 16 18  1  0
 18 19  2  0
 18 24  1  0
 19 20  1  0
 19 21  1  0
 21 22  2  0
 21 49  1  0
 22 23  1  0
 22 50  1  0
 23 24  2  0
 23 51  1  0
 24 25  1  0
 25 26  1  0
 25 29  1  0
 26 27  2  0
 27 28  1  0
 27 52  1  0
 28 29  2  0
 28 53  1  0
 30 31  2  0
 30 34  1  0
 31 32  1  0
 31 54  1  0
 32 33  2  0
 32 55  1  0
 33 34  1  0
 33 56  1  0
M  END
