set 2: 11
     RDKit          3D

 51 55  0  0  1  0  0  0  0  0999 V2000
   -3.6560   -4.4082   10.6496 C   0  0  1  0  0  0  0  0  0  0  0  0
   -2.6363   -4.2863   11.8484 C   0  0  0  0  0  0  0  0  0  0  0  0
   -2.9728   -3.7973   13.0393 C   0  0  0  0  0  0  0  0  0  0  0  0
   -1.9726   -3.5731   14.0042 C   0  0  0  0  0  0  0  0  0  0  0  0
   -2.3756   -3.1637   15.3673 C   0  0  1  0  0  0  0  0  0  0  0  0
   -0.6465   -3.7186   13.7066 N   0  0  0  0  0  0  0  0  0  0  0  0
   -0.4152   -4.1713   12.4007 C   0  0  0  0  0  0  0  0  0  0  0  0
   -1.3444   -4.5719   11.4791 N   0  0  0  0  0  0  0  0  0  0  0  0
    0.9338   -4.4159   12.0297 N   0  0  0  0  0  0  0  0  0  0  0  0
    2.0812   -3.6152   12.5865 C   0  0  2  0  0  0  0  0  0  0  0  0
    2.9518   -3.1791   11.4366 C   0  0  2  0  0  0  0  0  0  0  0  0
    2.8031   -1.6303   11.2243 C   0  0  2  0  0  0  0  0  0  0  0  0
    1.6284   -1.4004   10.3897 N   0  0  0  0  0  0  0  0  0  0  0  0
    1.3932   -2.5804    9.5475 C   0  0  2  0  0  0  0  0  0  0  0  0
    2.2070   -3.7056   10.2003 C   0  0  2  0  0  0  0  0  0  0  0  0
    1.3723   -4.8360   10.7195 C   0  0  2  0  0  0  0  0  0  0  0  0
    0.9211   -0.2632   10.3940 C   0  0  0  0  0  0  0  0  0  0  0  0
    1.0590    0.6497   11.2167 O   0  0  0  0  0  0  0  0  0  0  0  0
   -0.1221    0.0134    9.3154 C   0  0  0  0  0  0  0  0  0  0  0  0
   -1.4452    0.1190    9.7390 N   0  0  0  0  0  0  0  0  0  0  0  0
   -2.4265    0.2560    8.7553 C   0  0  0  0  0  0  0  0  0  0  0  0
   -2.1158    0.4082    7.3758 C   0  0  0  0  0  0  0  0  0  0  0  0
   -0.8334    0.3039    6.9762 C   0  0  0  0  0  0  0  0  0  0  0  0
    0.2122    0.0835    7.9296 C   0  0  0  0  0  0  0  0  0  0  0  0
    1.5569   -0.0831    7.4716 N   0  0  0  0  0  0  0  0  0  0  0  0
    1.8465   -0.5836    6.2689 N   0  0  0  0  0  0  0  0  0  0  0  0
    3.1217   -0.5735    6.2082 C   0  0  0  0  0  0  0  0  0  0  0  0
    3.6290    0.0305    7.3255 C   0  0  0  0  0  0  0  0  0  0  0  0
    2.6094    0.3868    8.1268 N   0  0  0  0  0  0  0  0  0  0  0  0
   -4.6458   -4.0423   10.9252 H   0  0  0  0  0  0  0  0  0  0  0  0
   -3.3081   -3.8277    9.7943 H   0  0  0  0  0  0  0  0  0  0  0  0
   -3.7557   -5.4487   10.3392 H   0  0  0  0  0  0  0  0  0  0  0  0
   -3.9965   -3.5591   13.2857 H   0  0  0  0  0  0  0  0  0  0  0  0
   -3.4047   -3.4549   15.5753 H   0  0  0  0  0  0  0  0  0  0  0  0
   -1.7312   -3.6309   16.1122 H   0  0  0  0  0  0  0  0  0  0  0  0
   -2.2920   -2.0821   15.4695 H   0  0  0  0  0  0  0  0  0  0  0  0
    2.6383   -4.2575   13.2695 H   0  0  0  0  0  0  0  0  0  0  0  0
    1.7121   -2.7726   13.1730 H   0  0  0  0  0  0  0  0  0  0  0  0
    3.9875   -3.4704   11.6166 H   0  0  0  0  0  0  0  0  0  0  0  0
    3.6521   -1.2413   10.6608 H   0  0  0  0  0  0  0  0  0  0  0  0
    2.7941   -1.0994   12.1753 H   0  0  0  0  0  0  0  0  0  0  0  0
    1.7832   -2.3673    8.5519 H   0  0  0  0  0  0  0  0  0  0  0  0
    0.3458   -2.8613    9.4227 H   0  0  0  0  0  0  0  0  0  0  0  0
    2.8826   -4.1120    9.4466 H   0  0  0  0  0  0  0  0  0  0  0  0
    0.5114   -5.0725   10.0921 H   0  0  0  0  0  0  0  0  0  0  0  0
    1.9460   -5.7565   10.8326 H   0  0  0  0  0  0  0  0  0  0  0  0
   -3.4524    0.2465    9.0931 H   0  0  0  0  0  0  0  0  0  0  0  0
   -2.8961    0.5972    6.6542 H   0  0  0  0  0  0  0  0  0  0  0  0
   -0.5855    0.3790    5.9274 H   0  0  0  0  0  0  0  0  0  0  0  0
    3.6461   -1.0028    5.3667 H   0  0  0  0  0  0  0  0  0  0  0  0
    4.6589    0.2204    7.5918 H   0  0  0  0  0  0  0  0  0  0  0  0
  1  2  1  0
  1 30  1  1
  1 31  1  0
  1 32  1  0
  2  3  2  0
  2  8  1  0
  3  4  1  0
  3 33  1  0
  4  5  1  0
  4  6  2  0
  5 34  1  1
  5 35  1  0
  5 36  1  0
  6  7  1  0
  7  8  2  0
  7  9  1  0
  9 10  1  0
  9 16  1  0
 10 11  1  0
 10 37  1  1
 10 38  1  0
 11 12  1  0
 11 15  1  0
 11 39  1  1
 12 13  1  0
 12 40  1  6
 12 41  1  0
 13 14  1  0
 13 17  1  0
 14 15  1  0
 14 42  1  6
 14 43  1  0
 15 16  1  0
 15 44  1  6
 16 45  1  6
 16 46  1  0
 17 18  2  0
 17 19  1  0
 19 20  2  0
 19 24  1  0
 20 21  1  0
 21 22  2  0
 21 47  1  0
 22 23  1  0
 22 48  1  0
 23 24  2  0
 23 49  1  0
 24 25  1  0
 25 26  1  0
 25 29  1  0
 26 27  2  0
 27 28  1  0
 27 50  1  0
 28 29  2  0
 28 51  1  0
M  END
