cmpd 11
     RDKit          3D

 31 33  0  0  1  0  0  0  0  0999 V2000
   17.6626   -2.0533   50.0305 N   0  0  0  0  0  0  0  0  0  0  0  0
   17.6116    0.2920   49.4220 N   0  0  0  0  0  0  0  0  0  0  0  0
   15.8345   -0.4562   50.5667 C   0  0  0  0  0  0  0  0  0  0  0  0
   15.6663    0.9406   50.2890 C   0  0  0  0  0  0  0  0  0  0  0  0
   16.7726    1.3771   49.5765 C   0  0  0  0  0  0  0  0  0  0  0  0
   17.4626   -4.3906   50.7784 C   0  0  1  0  0  0  0  0  0  0  0  0
   13.8207   -1.4401   51.8439 C   0  0  0  0  0  0  0  0  0  0  0  0
   11.3660   -1.0795   51.7458 C   0  0  0  0  0  0  0  0  0  0  0  0
   13.6970   -1.6825   53.2410 C   0  0  0  0  0  0  0  0  0  0  0  0
   12.4320   -1.6313   53.9099 C   0  0  0  0  0  0  0  0  0  0  0  0
   12.6256   -1.1291   51.1027 C   0  0  0  0  0  0  0  0  0  0  0  0
   11.2705   -1.3332   53.1348 C   0  0  0  0  0  0  0  0  0  0  0  0
   15.1355   -1.5272   51.2128 C   0  0  0  0  0  0  0  0  0  0  0  0
   17.0718   -0.8183   50.0096 C   0  0  0  0  0  0  0  0  0  0  0  0
   16.9208   -2.9956   50.6749 C   0  0  0  0  0  0  0  0  0  0  0  0
   13.3398   -2.1567   56.1221 C   0  0  1  0  0  0  0  0  0  0  0  0
   15.7062   -2.7918   51.2517 N   0  0  0  0  0  0  0  0  0  0  0  0
   12.2258   -1.8530   55.2694 O   0  0  0  0  0  0  0  0  0  0  0  0
   12.6606   -0.8070   49.3843 Cl  0  0  0  0  0  0  0  0  0  0  0  0
    9.6944   -1.2728   53.8581 Cl  0  0  0  0  0  0  0  0  0  0  0  0
   14.6317    1.6599   50.6549 F   0  0  0  0  0  0  0  0  0  0  0  0
   18.5031    0.3055   48.9524 H   0  0  0  0  0  0  0  0  0  0  0  0
   17.0037    2.3588   49.1857 H   0  0  0  0  0  0  0  0  0  0  0  0
   16.7529   -5.0168   51.3191 H   0  0  0  0  0  0  0  0  0  0  0  0
   17.6163   -4.7958   49.7783 H   0  0  0  0  0  0  0  0  0  0  0  0
   18.4123   -4.3727   51.3132 H   0  0  0  0  0  0  0  0  0  0  0  0
   10.4804   -0.8480   51.1737 H   0  0  0  0  0  0  0  0  0  0  0  0
   14.5943   -1.9171   53.7918 H   0  0  0  0  0  0  0  0  0  0  0  0
   13.8344   -3.0764   55.8073 H   0  0  0  0  0  0  0  0  0  0  0  0
   14.0664   -1.3434   56.1226 H   0  0  0  0  0  0  0  0  0  0  0  0
   12.9902   -2.2962   57.1450 H   0  0  0  0  0  0  0  0  0  0  0  0
  1 14  1  0
  1 15  2  0
  2  5  1  0
  2 14  1  0
  2 22  1  0
  3  4  1  0
  3 13  1  0
  3 14  2  0
  4  5  2  0
  4 21  1  0
  5 23  1  0
  6 15  1  0
  6 24  1  1
  6 25  1  0
  6 26  1  0
  7  9  1  0
  7 11  2  0
  7 13  1  0
  8 11  1  0
  8 12  2  0
  8 27  1  0
  9 10  2  0
  9 28  1  0
 10 12  1  0
 10 18  1  0
 11 19  1  0
 12 20  1  0
 13 17  2  0
 15 17  1  0
 16 18  1  0
 16 29  1  6
 16 30  1  0
 16 31  1  0
M  END
