cmpd 16
     RDKit          3D

 35 37  0  0  1  0  0  0  0  0999 V2000
   17.6626   -2.0533   50.0305 N   0  0  0  0  0  0  0  0  0  0  0  0
   17.6116    0.2920   49.4220 N   0  0  0  0  0  0  0  0  0  0  0  0
   15.8345   -0.4562   50.5667 C   0  0  0  0  0  0  0  0  0  0  0  0
   15.6663    0.9406   50.2890 C   0  0  0  0  0  0  0  0  0  0  0  0
   16.7726    1.3771   49.5765 C   0  0  0  0  0  0  0  0  0  0  0  0
   17.4799   -4.3869   50.7566 C   0  0  1  0  0  0  0  0  0  0  0  0
   13.8207   -1.4401   51.8439 C   0  0  0  0  0  0  0  0  0  0  0  0
   11.3660   -1.0795   51.7458 C   0  0  0  0  0  0  0  0  0  0  0  0
   13.6970   -1.6825   53.2410 C   0  0  0  0  0  0  0  0  0  0  0  0
   14.5643    1.7821   50.6654 C   0  0  0  0  0  0  0  0  0  0  0  0
   12.4320   -1.6313   53.9099 C   0  0  0  0  0  0  0  0  0  0  0  0
   12.6256   -1.1291   51.1027 C   0  0  0  0  0  0  0  0  0  0  0  0
   11.2705   -1.3332   53.1348 C   0  0  0  0  0  0  0  0  0  0  0  0
   15.1355   -1.5272   51.2128 C   0  0  0  0  0  0  0  0  0  0  0  0
   17.0718   -0.8183   50.0096 C   0  0  0  0  0  0  0  0  0  0  0  0
   16.9208   -2.9956   50.6749 C   0  0  0  0  0  0  0  0  0  0  0  0
   17.1262    2.7080   49.0288 C   0  0  1  0  0  0  0  0  0  0  0  0
   13.3398   -2.1567   56.1221 C   0  0  1  0  0  0  0  0  0  0  0  0
   13.6782    2.4375   51.0127 N   0  0  0  0  0  0  0  0  0  0  0  0
   15.7062   -2.7918   51.2517 N   0  0  0  0  0  0  0  0  0  0  0  0
   12.2258   -1.8530   55.2694 O   0  0  0  0  0  0  0  0  0  0  0  0
   12.6606   -0.8070   49.3843 Cl  0  0  0  0  0  0  0  0  0  0  0  0
    9.6944   -1.2728   53.8581 Cl  0  0  0  0  0  0  0  0  0  0  0  0
   18.4861    0.3962   48.9276 H   0  0  0  0  0  0  0  0  0  0  0  0
   16.7828   -5.0280   51.2962 H   0  0  0  0  0  0  0  0  0  0  0  0
   17.6289   -4.7788   49.7505 H   0  0  0  0  0  0  0  0  0  0  0  0
   18.4344   -4.3651   51.2826 H   0  0  0  0  0  0  0  0  0  0  0  0
   10.4779   -0.8480   51.1766 H   0  0  0  0  0  0  0  0  0  0  0  0
   14.5732   -1.9131   53.8287 H   0  0  0  0  0  0  0  0  0  0  0  0
   16.3330    3.4190   49.2598 H   0  0  0  0  0  0  0  0  0  0  0  0
   18.0603    3.0488   49.4754 H   0  0  0  0  0  0  0  0  0  0  0  0
   17.2459    2.6365   47.9477 H   0  0  0  0  0  0  0  0  0  0  0  0
   12.9879   -2.2973   57.1441 H   0  0  0  0  0  0  0  0  0  0  0  0
   13.8244   -3.0698   55.7763 H   0  0  0  0  0  0  0  0  0  0  0  0
   14.0542   -1.3339   56.0943 H   0  0  0  0  0  0  0  0  0  0  0  0
  1 15  1  0
  1 16  2  0
  2  5  1  0
  2 15  1  0
  2 24  1  0
  3  4  1  0
  3 14  1  0
  3 15  2  0
  4  5  2  0
  4 10  1  0
  5 17  1  0
  6 16  1  0
  6 25  1  1
  6 26  1  0
  6 27  1  0
  7  9  1  0
  7 12  2  0
  7 14  1  0
  8 12  1  0
  8 13  2  0
  8 28  1  0
  9 11  2  0
  9 29  1  0
 10 19  3  0
 11 13  1  0
 11 21  1  0
 12 22  1  0
 13 23  1  0
 14 20  2  0
 16 20  1  0
 17 30  1  6
 17 31  1  0
 17 32  1  0
 18 21  1  0
 18 33  1  1
 18 34  1  0
 18 35  1  0
M  END
