cmpd 7
     RDKit          3D

 29 30  0  0  1  0  0  0  0  0999 V2000
   17.5980   -1.9320   49.9900 N   0  0  0  0  0  0  0  0  0  0  0  0
   17.5890    0.3940   49.5140 N   0  0  0  0  0  0  0  0  0  0  0  0
   16.9790   -3.0210   50.5380 C   0  0  0  0  0  0  0  0  0  0  0  0
   17.6790   -4.3490   50.4430 C   0  0  1  0  0  0  0  0  0  0  0  0
   13.8330   -1.5150   51.8430 C   0  0  0  0  0  0  0  0  0  0  0  0
   12.6620   -1.1740   51.0870 C   0  0  0  0  0  0  0  0  0  0  0  0
   11.3990   -1.0650   51.7310 C   0  0  0  0  0  0  0  0  0  0  0  0
   12.4300   -1.6080   53.9260 C   0  0  0  0  0  0  0  0  0  0  0  0
   13.6940   -1.7220   53.2580 C   0  0  0  0  0  0  0  0  0  0  0  0
   15.7460   -2.9430   51.1650 C   0  0  0  0  0  0  0  0  0  0  0  0
   11.2820   -1.2830   53.1350 C   0  0  0  0  0  0  0  0  0  0  0  0
   15.1520   -1.6710   51.2130 C   0  0  0  0  0  0  0  0  0  0  0  0
   16.9630   -0.7150   50.0710 C   0  0  0  0  0  0  0  0  0  0  0  0
   13.3180   -2.1170   56.1500 C   0  0  1  0  0  0  0  0  0  0  0  0
   15.7410   -0.5540   50.6750 N   0  0  0  0  0  0  0  0  0  0  0  0
   12.2160   -1.7910   55.2900 O   0  0  0  0  0  0  0  0  0  0  0  0
   12.7250   -0.8880   49.3630 Cl  0  0  0  0  0  0  0  0  0  0  0  0
    9.7040   -1.1440   53.8430 Cl  0  0  0  0  0  0  0  0  0  0  0  0
   17.1452    1.3001   49.5591 H   0  0  0  0  0  0  0  0  0  0  0  0
   18.4878    0.2937   49.0643 H   0  0  0  0  0  0  0  0  0  0  0  0
   17.0692   -5.1161   50.9202 H   0  0  0  0  0  0  0  0  0  0  0  0
   17.8307   -4.6056   49.3945 H   0  0  0  0  0  0  0  0  0  0  0  0
   18.6444   -4.2876   50.9454 H   0  0  0  0  0  0  0  0  0  0  0  0
   10.5203   -0.8156   51.1563 H   0  0  0  0  0  0  0  0  0  0  0  0
   14.5589   -1.9727   53.8563 H   0  0  0  0  0  0  0  0  0  0  0  0
   15.2754   -3.8176   51.5904 H   0  0  0  0  0  0  0  0  0  0  0  0
   12.9609   -2.2210   57.1746 H   0  0  0  0  0  0  0  0  0  0  0  0
   13.7674   -3.0553   55.8248 H   0  0  0  0  0  0  0  0  0  0  0  0
   14.0625   -1.3222   56.1037 H   0  0  0  0  0  0  0  0  0  0  0  0
  1  3  2  0
  1 13  1  0
  2 13  1  0
  2 19  1  0
  2 20  1  0
  3  4  1  0
  3 10  1  0
  4 21  1  1
  4 22  1  0
  4 23  1  0
  5  6  2  0
  5  9  1  0
  5 12  1  0
  6  7  1  0
  6 17  1  0
  7 11  2  0
  7 24  1  0
  8  9  2  0
  8 11  1  0
  8 16  1  0
  9 25  1  0
 10 12  2  0
 10 26  1  0
 11 18  1  0
 12 15  1  0
 13 15  2  0
 14 16  1  0
 14 27  1  1
 14 28  1  0
 14 29  1  0
M  END
