cmpd 17
     RDKit          3D

 38 40  0  0  1  0  0  0  0  0999 V2000
   17.6626   -2.0533   50.0305 N   0  0  0  0  0  0  0  0  0  0  0  0
   17.6116    0.2920   49.4220 N   0  0  0  0  0  0  0  0  0  0  0  0
   15.8345   -0.4562   50.5667 C   0  0  0  0  0  0  0  0  0  0  0  0
   15.6663    0.9406   50.2890 C   0  0  0  0  0  0  0  0  0  0  0  0
   16.7726    1.3771   49.5765 C   0  0  0  0  0  0  0  0  0  0  0  0
   17.5023   -4.3763   50.7502 C   0  0  1  0  0  0  0  0  0  0  0  0
   13.8207   -1.4401   51.8439 C   0  0  0  0  0  0  0  0  0  0  0  0
   11.3660   -1.0795   51.7458 C   0  0  0  0  0  0  0  0  0  0  0  0
   13.6970   -1.6825   53.2410 C   0  0  0  0  0  0  0  0  0  0  0  0
   14.5188    1.8263   50.6749 C   0  0  0  0  0  0  0  0  0  0  0  0
   12.4320   -1.6313   53.9099 C   0  0  0  0  0  0  0  0  0  0  0  0
   12.6256   -1.1291   51.1027 C   0  0  0  0  0  0  0  0  0  0  0  0
   11.2705   -1.3332   53.1348 C   0  0  0  0  0  0  0  0  0  0  0  0
   15.1355   -1.5272   51.2128 C   0  0  0  0  0  0  0  0  0  0  0  0
   17.0718   -0.8183   50.0096 C   0  0  0  0  0  0  0  0  0  0  0  0
   16.9208   -2.9956   50.6749 C   0  0  0  0  0  0  0  0  0  0  0  0
   17.1537    2.7120   49.0083 C   0  0  2  0  0  0  0  0  0  0  0  0
   13.3398   -2.1567   56.1221 C   0  0  1  0  0  0  0  0  0  0  0  0
   13.6484    2.5338   50.9583 N   0  0  0  0  0  0  0  0  0  0  0  0
   15.7062   -2.7918   51.2517 N   0  0  0  0  0  0  0  0  0  0  0  0
   12.2258   -1.8530   55.2694 O   0  0  0  0  0  0  0  0  0  0  0  0
   12.6606   -0.8070   49.3843 Cl  0  0  0  0  0  0  0  0  0  0  0  0
    9.6944   -1.2728   53.8581 Cl  0  0  0  0  0  0  0  0  0  0  0  0
   16.6306    2.8267   47.6071 C   0  0  1  0  0  0  0  0  0  0  0  0
   18.5007    0.3283   48.9382 H   0  0  0  0  0  0  0  0  0  0  0  0
   16.8158   -5.0309   51.2870 H   0  0  0  0  0  0  0  0  0  0  0  0
   17.6574   -4.7607   49.7420 H   0  0  0  0  0  0  0  0  0  0  0  0
   18.4564   -4.3405   51.2761 H   0  0  0  0  0  0  0  0  0  0  0  0
   10.4787   -0.8482   51.1769 H   0  0  0  0  0  0  0  0  0  0  0  0
   14.5734   -1.9135   53.8304 H   0  0  0  0  0  0  0  0  0  0  0  0
   18.2396    2.8066   48.9996 H   0  0  0  0  0  0  0  0  0  0  0  0
   16.7249    3.5040   49.6222 H   0  0  0  0  0  0  0  0  0  0  0  0
   12.9874   -2.2972   57.1440 H   0  0  0  0  0  0  0  0  0  0  0  0
   13.8240   -3.0698   55.7759 H   0  0  0  0  0  0  0  0  0  0  0  0
   14.0539   -1.3337   56.0940 H   0  0  0  0  0  0  0  0  0  0  0  0
   16.9076    3.7967   47.1942 H   0  0  0  0  0  0  0  0  0  0  0  0
   17.0595    2.0347   46.9932 H   0  0  0  0  0  0  0  0  0  0  0  0
   15.5448    2.7322   47.6158 H   0  0  0  0  0  0  0  0  0  0  0  0
  1 15  1  0
  1 16  2  0
  2  5  1  0
  2 15  1  0
  2 25  1  0
  3  4  1  0
  3 14  1  0
  3 15  2  0
  4  5  2  0
  4 10  1  0
  5 17  1  0
  6 16  1  0
  6 26  1  1
  6 27  1  0
  6 28  1  0
  7  9  1  0
  7 12  2  0
  7 14  1  0
  8 12  1  0
  8 13  2  0
  8 29  1  0
  9 11  2  0
  9 30  1  0
 10 19  3  0
 11 13  1  0
 11 21  1  0
 12 22  1  0
 13 23  1  0
 14 20  2  0
 16 20  1  0
 17 24  1  0
 17 31  1  6
 17 32  1  0
 18 21  1  0
 18 33  1  1
 18 34  1  0
 18 35  1  0
 24 36  1  6
 24 37  1  0
 24 38  1  0
M  END
