cmpd 10
     RDKit          3D

 36 38  0  0  1  0  0  0  0  0999 V2000
   17.5823   -2.5556   49.8852 N   0  0  0  0  0  0  0  0  0  0  0  0
   17.5823   -0.2885   49.0838 N   0  0  0  0  0  0  0  0  0  0  0  0
   15.8224   -0.8952   50.3538 C   0  0  0  0  0  0  0  0  0  0  0  0
   15.6172    0.4797   49.9410 C   0  0  0  0  0  0  0  0  0  0  0  0
   16.7006    0.7516   49.1135 C   0  0  0  0  0  0  0  0  0  0  0  0
   17.3895   -4.7964   50.7723 C   0  0  1  0  0  0  0  0  0  0  0  0
   13.8604   -1.6276   51.8304 C   0  0  0  0  0  0  0  0  0  0  0  0
   11.4947   -1.0904   51.8259 C   0  0  0  0  0  0  0  0  0  0  0  0
   13.8113   -1.6939   53.2304 C   0  0  0  0  0  0  0  0  0  0  0  0
   12.6136   -1.4882   53.9370 C   0  0  0  0  0  0  0  0  0  0  0  0
   12.6787   -1.3252   51.1320 C   0  0  0  0  0  0  0  0  0  0  0  0
   11.4505   -1.2065   53.2123 C   0  0  0  0  0  0  0  0  0  0  0  0
   15.1530   -1.8694   51.1342 C   0  0  0  0  0  0  0  0  0  0  0  0
   17.0509   -1.3380   49.7790 C   0  0  0  0  0  0  0  0  0  0  0  0
   16.8395   -3.3922   50.6471 C   0  0  0  0  0  0  0  0  0  0  0  0
   13.6901   -1.6738   56.1011 C   0  0  1  0  0  0  0  0  0  0  0  0
   15.6726   -3.1213   51.2879 N   0  0  0  0  0  0  0  0  0  0  0  0
   12.5107   -1.5300   55.3173 O   0  0  0  0  0  0  0  0  0  0  0  0
   12.6333   -1.2547   49.4037 Cl  0  0  0  0  0  0  0  0  0  0  0  0
    9.9310   -1.0135   54.0165 Cl  0  0  0  0  0  0  0  0  0  0  0  0
   14.4322    1.3857   50.2807 C   0  0  0  0  0  0  0  0  0  0  0  0
   14.4916    2.7715   49.7095 C   0  0  1  0  0  0  0  0  0  0  0  0
   13.4935    1.0035   50.9757 O   0  0  0  0  0  0  0  0  0  0  0  0
   18.4788   -0.2572   48.6137 H   0  0  0  0  0  0  0  0  0  0  0  0
   16.8942    1.6473   48.5334 H   0  0  0  0  0  0  0  0  0  0  0  0
   16.7268   -5.3915   51.4006 H   0  0  0  0  0  0  0  0  0  0  0  0
   17.4567   -5.2498   49.7834 H   0  0  0  0  0  0  0  0  0  0  0  0
   18.3812   -4.7593   51.2232 H   0  0  0  0  0  0  0  0  0  0  0  0
   10.6001   -0.8155   51.2885 H   0  0  0  0  0  0  0  0  0  0  0  0
   14.7086   -1.9075   53.7944 H   0  0  0  0  0  0  0  0  0  0  0  0
   13.4245   -1.6877   57.1582 H   0  0  0  0  0  0  0  0  0  0  0  0
   14.1887   -2.6071   55.8395 H   0  0  0  0  0  0  0  0  0  0  0  0
   14.3604   -0.8367   55.9059 H   0  0  0  0  0  0  0  0  0  0  0  0
   15.4080    2.8869   49.1307 H   0  0  0  0  0  0  0  0  0  0  0  0
   13.6300    2.9348   49.0620 H   0  0  0  0  0  0  0  0  0  0  0  0
   14.4799    3.4996   50.5205 H   0  0  0  0  0  0  0  0  0  0  0  0
  1 14  1  0
  1 15  2  0
  2  5  1  0
  2 14  1  0
  2 24  1  0
  3  4  1  0
  3 13  1  0
  3 14  2  0
  4  5  2  0
  4 21  1  0
  5 25  1  0
  6 15  1  0
  6 26  1  1
  6 27  1  0
  6 28  1  0
  7  9  1  0
  7 11  2  0
  7 13  1  0
  8 11  1  0
  8 12  2  0
  8 29  1  0
  9 10  2  0
  9 30  1  0
 10 12  1  0
 10 18  1  0
 11 19  1  0
 12 20  1  0
 13 17  2  0
 15 17  1  0
 16 18  1  0
 16 31  1  1
 16 32  1  0
 16 33  1  0
 21 22  1  0
 21 23  2  0
 22 34  1  6
 22 35  1  0
 22 36  1  0
M  END
