11
     RDKit          3D

 26 28  0  0  1  0  0  0  0  0999 V2000
   26.7934   20.1983    8.3316 C   0  0  0  0  0  0  0  0  0  0  0  0
   26.9388   18.8122    8.2365 C   0  0  0  0  0  0  0  0  0  0  0  0
   27.5595   18.0924    9.2071 C   0  0  0  0  0  0  0  0  0  0  0  0
   28.0424   18.7797   10.2764 C   0  0  0  0  0  0  0  0  0  0  0  0
   27.9127   20.1711   10.3829 C   0  0  0  0  0  0  0  0  0  0  0  0
   27.2811   20.8776    9.4013 N   0  0  0  0  0  0  0  0  0  0  0  0
   28.4424   20.9468   11.5561 C   0  0  0  0  0  0  0  0  0  0  0  0
   28.4293   22.2686   11.6014 N   0  0  0  0  0  0  0  0  0  0  0  0
   28.9666   22.5117   12.7937 N   0  0  0  0  0  0  0  0  0  0  0  0
   26.5691   18.2663    7.3824 H   0  0  0  0  0  0  0  0  0  0  0  0
   28.5385   18.2034   11.0424 H   0  0  0  0  0  0  0  0  0  0  0  0
   29.0574   23.4414   13.1933 H   0  0  0  0  0  0  0  0  0  0  0  0
   27.6521   17.0208    9.1090 H   0  0  0  0  0  0  0  0  0  0  0  0
   25.3993   19.9471    6.6433 F   0  0  0  0  0  0  0  0  0  0  0  0
   26.1506   20.8654    7.3480 C   0  0  1  0  0  0  0  0  0  0  0  0
   25.3261   21.8284    7.8931 F   0  0  0  0  0  0  0  0  0  0  0  0
   27.0673   21.4658    6.5092 F   0  0  0  0  0  0  0  0  0  0  0  0
   29.2880   21.4204   13.4120 C   0  0  0  0  0  0  0  0  0  0  0  0
   28.9240   20.3701   12.5534 C   0  0  0  0  0  0  0  0  0  0  0  0
   29.1462   19.0382   12.9396 C   0  0  0  0  0  0  0  0  0  0  0  0
   29.7324   18.7565   14.1845 C   0  0  0  0  0  0  0  0  0  0  0  0
   30.0963   19.8067   15.0432 N   0  0  0  0  0  0  0  0  0  0  0  0
   29.8741   21.1388   14.6569 C   0  0  0  0  0  0  0  0  0  0  0  0
   28.8602   18.2131   12.2651 H   0  0  0  0  0  0  0  0  0  0  0  0
   29.9069   17.7101   14.4880 H   0  0  0  0  0  0  0  0  0  0  0  0
   30.1601   21.9638   15.3315 H   0  0  0  0  0  0  0  0  0  0  0  0
  1  2  1  0
  1  6  2  0
  1 15  1  0
  2  3  2  0
  2 10  1  0
  3  4  1  0
  3 13  1  0
  4  5  2  0
  4 11  1  0
  5  6  1  0
  5  7  1  0
  7  8  2  0
  7 19  1  0
  8  9  1  0
  9 12  1  0
  9 18  1  0
 15 14  1  6
 15 16  1  0
 15 17  1  0
 18 19  2  0
 18 23  1  0
 19 20  1  0
 20 21  2  0
 20 24  1  0
 21 22  1  0
 21 25  1  0
 22 23  2  0
 23 26  1  0
M  END
