32
     RDKit          3D

 62 65  0  0  1  0  0  0  0  0999 V2000
   16.8854  -11.1679   19.4507 O   0  0  0  0  0  0  0  0  0  0  0  0
   15.9315   -5.7541   17.1377 N   0  0  0  0  0  0  0  0  0  0  0  0
   16.9433  -12.8530   17.2951 O   0  0  0  0  0  0  0  0  0  0  0  0
   16.3861  -10.7074   18.2446 C   0  0  0  0  0  0  0  0  0  0  0  0
   15.1037   -6.9056   15.5118 N   0  0  0  0  0  0  0  0  0  0  0  0
   15.0454   -6.9946   19.0049 O   0  0  0  0  0  0  0  0  0  0  0  0
   15.8040   -9.4323   18.1015 C   0  0  0  0  0  0  0  0  0  0  0  0
   16.5234   -5.1949   14.8955 N   0  0  0  0  0  0  0  0  0  0  0  0
   15.2819   -9.0050   16.8701 C   0  0  0  0  0  0  0  0  0  0  0  0
    9.9503   -3.3612   14.0954 N   0  0  0  0  0  0  0  0  0  0  0  0
   15.3765   -9.8765   15.7864 C   0  0  0  0  0  0  0  0  0  0  0  0
   15.9200  -11.1404   15.9156 C   0  0  0  0  0  0  0  0  0  0  0  0
   16.4136  -11.5810   17.1436 C   0  0  0  0  0  0  0  0  0  0  0  0
   17.4720  -13.5077   16.1335 C   0  0  2  0  0  0  0  0  0  0  0  0
   14.5508   -7.6490   16.6396 C   0  0  1  0  0  0  0  0  0  0  0  0
   15.1686   -6.8265   17.7900 C   0  0  0  0  0  0  0  0  0  0  0  0
   15.8911   -5.8997   15.8168 C   0  0  0  0  0  0  0  0  0  0  0  0
   16.6937   -4.7271   17.8553 C   0  0  2  0  0  0  0  0  0  0  0  0
   13.0029   -7.5311   16.6942 C   0  0  0  0  0  0  0  0  0  0  0  0
   12.2192   -8.5633   17.2296 C   0  0  0  0  0  0  0  0  0  0  0  0
   10.8323   -8.4664   17.2983 C   0  0  0  0  0  0  0  0  0  0  0  0
   10.1977   -7.3175   16.8421 C   0  0  0  0  0  0  0  0  0  0  0  0
   10.9420   -6.2630   16.3060 C   0  0  0  0  0  0  0  0  0  0  0  0
   12.3363   -6.3822   16.2333 C   0  0  0  0  0  0  0  0  0  0  0  0
   10.2591   -5.0276   15.8306 C   0  0  0  0  0  0  0  0  0  0  0  0
    9.3259   -4.3596   16.6340 C   0  0  0  0  0  0  0  0  0  0  0  0
    8.7166   -3.1947   16.1703 C   0  0  0  0  0  0  0  0  0  0  0  0
    9.0594   -2.7356   14.9015 C   0  0  0  0  0  0  0  0  0  0  0  0
   10.5336   -4.4883   14.5687 C   0  0  0  0  0  0  0  0  0  0  0  0
   15.7203   -8.7854   18.9581 H   0  0  0  0  0  0  0  0  0  0  0  0
   16.4637   -5.4800   13.9121 H   0  0  0  0  0  0  0  0  0  0  0  0
   16.8778   -4.2418   15.0661 H   0  0  0  0  0  0  0  0  0  0  0  0
   14.9833   -9.5848   14.8230 H   0  0  0  0  0  0  0  0  0  0  0  0
   15.9313  -11.7705   15.0418 H   0  0  0  0  0  0  0  0  0  0  0  0
   17.8311  -14.5063   16.3676 H   0  0  0  0  0  0  0  0  0  0  0  0
   18.3325  -12.9865   15.7141 H   0  0  0  0  0  0  0  0  0  0  0  0
   16.7094  -13.6086   15.3594 H   0  0  0  0  0  0  0  0  0  0  0  0
   17.7260   -5.0637   17.9450 H   0  0  0  0  0  0  0  0  0  0  0  0
   16.2574   -4.5696   18.8414 H   0  0  0  0  0  0  0  0  0  0  0  0
   16.6530   -3.8021   17.2770 H   0  0  0  0  0  0  0  0  0  0  0  0
   12.6836   -9.4614   17.6082 H   0  0  0  0  0  0  0  0  0  0  0  0
   10.2484   -9.2763   17.7125 H   0  0  0  0  0  0  0  0  0  0  0  0
    9.1210   -7.2508   16.9061 H   0  0  0  0  0  0  0  0  0  0  0  0
   12.9061   -5.5568   15.8291 H   0  0  0  0  0  0  0  0  0  0  0  0
    9.0838   -4.7345   17.6180 H   0  0  0  0  0  0  0  0  0  0  0  0
    8.0005   -2.6593   16.7763 H   0  0  0  0  0  0  0  0  0  0  0  0
    8.6136   -1.8308   14.5121 H   0  0  0  0  0  0  0  0  0  0  0  0
   11.2520   -4.9584   13.9138 H   0  0  0  0  0  0  0  0  0  0  0  0
   17.5397  -10.2472   20.3288 C   0  0  2  0  0  0  0  0  0  0  0  0
   18.8977   -9.7818   19.7658 C   0  0  2  0  0  0  0  0  0  0  0  0
   19.8993  -10.9345   19.5590 C   0  0  2  0  0  0  0  0  0  0  0  0
   21.2476  -10.4601   19.0018 C   0  0  2  0  0  0  0  0  0  0  0  0
   17.7023  -10.7520   21.2796 H   0  0  0  0  0  0  0  0  0  0  0  0
   16.9078   -9.3963   20.5798 H   0  0  0  0  0  0  0  0  0  0  0  0
   19.3284   -9.0501   20.4506 H   0  0  0  0  0  0  0  0  0  0  0  0
   18.7426   -9.2527   18.8243 H   0  0  0  0  0  0  0  0  0  0  0  0
   19.4749  -11.6760   18.8797 H   0  0  0  0  0  0  0  0  0  0  0  0
   20.0672  -11.4499   20.5057 H   0  0  0  0  0  0  0  0  0  0  0  0
   21.9380  -11.2963   18.8932 H   0  0  0  0  0  0  0  0  0  0  0  0
   21.7182   -9.7288   19.6593 H   0  0  0  0  0  0  0  0  0  0  0  0
   21.1327  -10.0003   18.0195 H   0  0  0  0  0  0  0  0  0  0  0  0
   15.0952   -7.2856   14.5662 H   0  0  0  0  0  0  0  0  0  0  0  0
  1  4  1  0
  1 49  1  0
  2 16  1  0
  2 17  1  0
  2 18  1  0
  3 13  1  0
  3 14  1  0
  4  7  1  0
  4 13  2  0
  5 15  1  0
  5 17  2  0
  5 62  1  0
  6 16  2  0
  7  9  2  0
  7 30  1  0
  8 17  1  0
  8 31  1  0
  8 32  1  0
  9 11  1  0
 15  9  1  6
 10 28  1  0
 10 29  2  0
 11 12  2  0
 11 33  1  0
 12 13  1  0
 12 34  1  0
 14 35  1  1
 14 36  1  0
 14 37  1  0
 15 16  1  0
 15 19  1  0
 18 38  1  1
 18 39  1  0
 18 40  1  0
 19 20  1  0
 19 24  2  0
 20 21  2  0
 20 41  1  0
 21 22  1  0
 21 42  1  0
 22 23  2  0
 22 43  1  0
 23 24  1  0
 23 25  1  0
 24 44  1  0
 25 26  2  0
 25 29  1  0
 26 27  1  0
 26 45  1  0
 27 28  2  0
 27 46  1  0
 28 47  1  0
 29 48  1  0
 49 50  1  0
 49 53  1  1
 49 54  1  0
 50 51  1  0
 50 55  1  1
 50 56  1  0
 51 52  1  0
 51 57  1  6
 51 58  1  0
 52 59  1  6
 52 60  1  0
 52 61  1  0
M  CHG  1   5   1
M  END
