33
     RDKit          3D

 59 62  0  0  1  0  0  0  0  0999 V2000
   17.8274  -10.9759   19.2340 O   0  0  0  0  0  0  0  0  0  0  0  0
   15.8878   -5.5984   17.1722 N   0  0  0  0  0  0  0  0  0  0  0  0
   17.3472  -12.8576   17.2260 O   0  0  0  0  0  0  0  0  0  0  0  0
   16.9957  -10.6510   18.1769 C   0  0  0  0  0  0  0  0  0  0  0  0
   15.3650   -7.0898   15.6955 N   0  0  0  0  0  0  0  0  0  0  0  0
   15.1850   -6.7615   19.1656 O   0  0  0  0  0  0  0  0  0  0  0  0
   16.3138   -9.4299   18.0910 C   0  0  0  0  0  0  0  0  0  0  0  0
   16.4546   -5.1949   14.8955 N   0  0  0  0  0  0  0  0  0  0  0  0
   15.5015   -9.1071   16.9886 C   0  0  0  0  0  0  0  0  0  0  0  0
   10.3543   -3.7064   13.8622 N   0  0  0  0  0  0  0  0  0  0  0  0
   15.4374  -10.0288   15.9342 C   0  0  0  0  0  0  0  0  0  0  0  0
   16.0499  -11.2734   16.0337 C   0  0  0  0  0  0  0  0  0  0  0  0
   16.8129  -11.5919   17.1539 C   0  0  0  0  0  0  0  0  0  0  0  0
   18.7571  -12.9395   17.0561 C   0  0  2  0  0  0  0  0  0  0  0  0
   14.8086   -7.7139   16.8831 C   0  0  1  0  0  0  0  0  0  0  0  0
   15.2862   -6.6953   17.9393 C   0  0  0  0  0  0  0  0  0  0  0  0
   15.9275   -5.9096   15.8787 C   0  0  0  0  0  0  0  0  0  0  0  0
   16.4467   -4.3829   17.7723 C   0  0  2  0  0  0  0  0  0  0  0  0
   13.2501   -7.6672   16.8764 C   0  0  0  0  0  0  0  0  0  0  0  0
   12.4755   -8.6173   17.5569 C   0  0  0  0  0  0  0  0  0  0  0  0
   11.0840   -8.5575   17.5627 C   0  0  0  0  0  0  0  0  0  0  0  0
   10.4351   -7.5050   16.9283 C   0  0  0  0  0  0  0  0  0  0  0  0
   11.1685   -6.5028   16.2857 C   0  0  0  0  0  0  0  0  0  0  0  0
   12.5656   -6.6075   16.2536 C   0  0  0  0  0  0  0  0  0  0  0  0
   10.4810   -5.3286   15.6690 C   0  0  0  0  0  0  0  0  0  0  0  0
    9.3880   -4.7094   16.2908 C   0  0  0  0  0  0  0  0  0  0  0  0
    8.7899   -3.5951   15.7041 C   0  0  0  0  0  0  0  0  0  0  0  0
    9.3034   -3.1348   14.4955 C   0  0  0  0  0  0  0  0  0  0  0  0
   10.9234   -4.7829   14.4589 C   0  0  0  0  0  0  0  0  0  0  0  0
   16.4329   -8.7137   18.8878 H   0  0  0  0  0  0  0  0  0  0  0  0
   16.3548   -5.5071   13.9227 H   0  0  0  0  0  0  0  0  0  0  0  0
   16.8038   -4.2348   15.0296 H   0  0  0  0  0  0  0  0  0  0  0  0
   14.8959   -9.7995   15.0287 H   0  0  0  0  0  0  0  0  0  0  0  0
   15.9417  -11.9917   15.2336 H   0  0  0  0  0  0  0  0  0  0  0  0
   19.0551  -13.9880   17.0503 H   0  0  0  0  0  0  0  0  0  0  0  0
   19.3048  -12.4534   17.8629 H   0  0  0  0  0  0  0  0  0  0  0  0
   19.0692  -12.5007   16.1084 H   0  0  0  0  0  0  0  0  0  0  0  0
   16.2682   -3.5492   17.0901 H   0  0  0  0  0  0  0  0  0  0  0  0
   17.5185   -4.5249   17.9103 H   0  0  0  0  0  0  0  0  0  0  0  0
   15.9583   -4.1912   18.7276 H   0  0  0  0  0  0  0  0  0  0  0  0
   12.9502   -9.4169   18.1050 H   0  0  0  0  0  0  0  0  0  0  0  0
   10.5069   -9.3099   18.0810 H   0  0  0  0  0  0  0  0  0  0  0  0
    9.3558   -7.4628   16.9590 H   0  0  0  0  0  0  0  0  0  0  0  0
   13.1291   -5.8229   15.7681 H   0  0  0  0  0  0  0  0  0  0  0  0
    9.0124   -5.0768   17.2347 H   0  0  0  0  0  0  0  0  0  0  0  0
    7.9526   -3.0998   16.1737 H   0  0  0  0  0  0  0  0  0  0  0  0
    8.8681   -2.2706   14.0150 H   0  0  0  0  0  0  0  0  0  0  0  0
   11.7831   -5.1948   13.9528 H   0  0  0  0  0  0  0  0  0  0  0  0
   18.5588   -9.9396   19.8979 C   0  0  1  0  0  0  0  0  0  0  0  0
   17.8702   -9.6151   21.2327 C   0  0  2  0  0  0  0  0  0  0  0  0
   19.9889  -10.4559   20.1114 C   0  0  2  0  0  0  0  0  0  0  0  0
   18.6386   -9.0344   19.2910 H   0  0  0  0  0  0  0  0  0  0  0  0
   16.8520   -9.2576   21.0833 H   0  0  0  0  0  0  0  0  0  0  0  0
   18.4146   -8.8419   21.7762 H   0  0  0  0  0  0  0  0  0  0  0  0
   17.8172  -10.4963   21.8725 H   0  0  0  0  0  0  0  0  0  0  0  0
   20.4795  -10.6565   19.1588 H   0  0  0  0  0  0  0  0  0  0  0  0
   19.9997  -11.3804   20.6894 H   0  0  0  0  0  0  0  0  0  0  0  0
   20.5973   -9.7229   20.6429 H   0  0  0  0  0  0  0  0  0  0  0  0
   15.3235   -7.5260   14.7717 H   0  0  0  0  0  0  0  0  0  0  0  0
  1  4  1  0
  1 49  1  0
  2 16  1  0
  2 17  1  0
  2 18  1  0
  3 13  1  0
  3 14  1  0
  4  7  1  0
  4 13  2  0
  5 15  1  0
  5 17  2  0
  5 59  1  0
  6 16  2  0
  7  9  2  0
  7 30  1  0
  8 17  1  0
  8 31  1  0
  8 32  1  0
  9 11  1  0
 15  9  1  1
 10 28  1  0
 10 29  2  0
 11 12  2  0
 11 33  1  0
 12 13  1  0
 12 34  1  0
 14 35  1  6
 14 36  1  0
 14 37  1  0
 15 16  1  0
 15 19  1  0
 18 38  1  6
 18 39  1  0
 18 40  1  0
 19 20  1  0
 19 24  2  0
 20 21  2  0
 20 41  1  0
 21 22  1  0
 21 42  1  0
 22 23  2  0
 22 43  1  0
 23 24  1  0
 23 25  1  0
 24 44  1  0
 25 26  2  0
 25 29  1  0
 26 27  1  0
 26 45  1  0
 27 28  2  0
 27 46  1  0
 28 47  1  0
 29 48  1  0
 49 50  1  0
 49 51  1  0
 49 52  1  6
 50 53  1  6
 50 54  1  0
 50 55  1  0
 51 56  1  6
 51 57  1  0
 51 58  1  0
M  CHG  1   5   1
M  END
