37 out
     RDKit          3D

 49 52  0  0  1  0  0  0  0  0999 V2000
   15.8620  -11.7899   15.0064 H   0  0  0  0  0  0  0  0  0  0  0  0
   15.9218   -5.5693   17.1699 N   0  0  0  0  0  0  0  0  0  0  0  0
   17.3992  -12.7572   16.8841 O   0  0  0  0  0  0  0  0  0  0  0  0
   15.9557  -11.1565   15.8761 C   0  0  0  0  0  0  0  0  0  0  0  0
   15.3533   -7.0384   15.6934 N   0  0  0  0  0  0  0  0  0  0  0  0
   15.0452   -6.6408   19.1466 O   0  0  0  0  0  0  0  0  0  0  0  0
   15.3140   -9.9213   15.8808 C   0  0  0  0  0  0  0  0  0  0  0  0
   16.5233   -5.1949   14.8955 N   0  0  0  0  0  0  0  0  0  0  0  0
   15.4096   -9.0553   16.9796 C   0  0  0  0  0  0  0  0  0  0  0  0
   10.3444   -3.5949   13.8701 N   0  0  0  0  0  0  0  0  0  0  0  0
   16.1689   -9.4679   18.0854 C   0  0  0  0  0  0  0  0  0  0  0  0
   16.8278  -10.6933   18.0776 C   0  0  0  0  0  0  0  0  0  0  0  0
   16.7352  -11.5472   16.9695 C   0  0  0  0  0  0  0  0  0  0  0  0
   18.7942  -12.7629   16.5998 C   0  0  2  0  0  0  0  0  0  0  0  0
   14.7639   -7.6463   16.8734 C   0  0  1  0  0  0  0  0  0  0  0  0
   15.2256   -6.6174   17.9279 C   0  0  0  0  0  0  0  0  0  0  0  0
   15.9615   -5.8836   15.8781 C   0  0  0  0  0  0  0  0  0  0  0  0
   16.4750   -4.3448   17.7572 C   0  0  2  0  0  0  0  0  0  0  0  0
   13.2117   -7.6202   16.8114 C   0  0  0  0  0  0  0  0  0  0  0  0
   12.4356   -8.6583   17.3452 C   0  0  0  0  0  0  0  0  0  0  0  0
   11.0445   -8.6273   17.2954 C   0  0  0  0  0  0  0  0  0  0  0  0
   10.3985   -7.5377   16.7236 C   0  0  0  0  0  0  0  0  0  0  0  0
   11.1355   -6.4720   16.1974 C   0  0  0  0  0  0  0  0  0  0  0  0
   12.5338   -6.5297   16.2418 C   0  0  0  0  0  0  0  0  0  0  0  0
   10.4488   -5.2857   15.6111 C   0  0  0  0  0  0  0  0  0  0  0  0
    9.3234   -4.7190   16.2229 C   0  0  0  0  0  0  0  0  0  0  0  0
    8.7199   -3.5943   15.6645 C   0  0  0  0  0  0  0  0  0  0  0  0
    9.2634   -3.0709   14.4955 C   0  0  0  0  0  0  0  0  0  0  0  0
   10.9194   -4.6832   14.4384 C   0  0  0  0  0  0  0  0  0  0  0  0
   14.7528   -9.6207   15.0077 H   0  0  0  0  0  0  0  0  0  0  0  0
   16.4345   -5.5147   13.9245 H   0  0  0  0  0  0  0  0  0  0  0  0
   16.8637   -4.2293   15.0223 H   0  0  0  0  0  0  0  0  0  0  0  0
   16.2911   -8.8368   18.9528 H   0  0  0  0  0  0  0  0  0  0  0  0
   17.7716  -11.1170   19.4642 Cl  0  0  0  0  0  0  0  0  0  0  0  0
   19.1272  -13.7927   16.4801 H   0  0  0  0  0  0  0  0  0  0  0  0
   19.3794  -12.3148   17.4035 H   0  0  0  0  0  0  0  0  0  0  0  0
   19.0126  -12.2394   15.6675 H   0  0  0  0  0  0  0  0  0  0  0  0
   17.5118   -4.2465   17.4337 H   0  0  0  0  0  0  0  0  0  0  0  0
   16.4208   -4.3952   18.8444 H   0  0  0  0  0  0  0  0  0  0  0  0
   15.8970   -3.4985   17.3805 H   0  0  0  0  0  0  0  0  0  0  0  0
   12.9074   -9.5059   17.8193 H   0  0  0  0  0  0  0  0  0  0  0  0
   10.4652   -9.4415   17.7076 H   0  0  0  0  0  0  0  0  0  0  0  0
    9.3183   -7.5247   16.6973 H   0  0  0  0  0  0  0  0  0  0  0  0
   13.1006   -5.6979   15.8461 H   0  0  0  0  0  0  0  0  0  0  0  0
    8.9280   -5.1363   17.1376 H   0  0  0  0  0  0  0  0  0  0  0  0
    7.8579   -3.1362   16.1270 H   0  0  0  0  0  0  0  0  0  0  0  0
    8.8258   -2.1943   14.0401 H   0  0  0  0  0  0  0  0  0  0  0  0
   11.7973   -5.0633   13.9376 H   0  0  0  0  0  0  0  0  0  0  0  0
   15.3235   -7.4800   14.7723 H   0  0  0  0  0  0  0  0  0  0  0  0
  1  4  1  0
  2 16  1  0
  2 17  1  0
  2 18  1  0
  3 13  1  0
  3 14  1  0
  4  7  1  0
  4 13  2  0
  5 15  1  0
  5 17  2  0
  5 49  1  0
  6 16  2  0
  7  9  2  0
  7 30  1  0
  8 17  1  0
  8 31  1  0
  8 32  1  0
  9 11  1  0
 15  9  1  1
 10 28  1  0
 10 29  2  0
 11 12  2  0
 11 33  1  0
 12 13  1  0
 12 34  1  0
 14 35  1  6
 14 36  1  0
 14 37  1  0
 15 16  1  0
 15 19  1  0
 18 38  1  1
 18 39  1  0
 18 40  1  0
 19 20  1  0
 19 24  2  0
 20 21  2  0
 20 41  1  0
 21 22  1  0
 21 42  1  0
 22 23  2  0
 22 43  1  0
 23 24  1  0
 23 25  1  0
 24 44  1  0
 25 26  2  0
 25 29  1  0
 26 27  1  0
 26 45  1  0
 27 28  2  0
 27 46  1  0
 28 47  1  0
 29 48  1  0
M  CHG  1   5   1
M  END
