28 in
     RDKit          3D

 52 55  0  0  1  0  0  0  0  0999 V2000
   15.6839  -12.2726   15.1114 C   0  0  2  0  0  0  0  0  0  0  0  0
   15.8992   -5.6211   17.1807 N   0  0  0  0  0  0  0  0  0  0  0  0
   17.1262  -12.9035   17.4509 O   0  0  0  0  0  0  0  0  0  0  0  0
   15.8078  -11.3032   16.2789 C   0  0  0  0  0  0  0  0  0  0  0  0
   15.3200   -7.1953   15.8248 N   0  0  0  0  0  0  0  0  0  0  0  0
   15.0593   -6.5557   19.2413 O   0  0  0  0  0  0  0  0  0  0  0  0
   15.2237  -10.0393   16.1917 C   0  0  0  0  0  0  0  0  0  0  0  0
   16.5396   -5.4479   14.8881 N   0  0  0  0  0  0  0  0  0  0  0  0
   15.3022   -9.1209   17.2492 C   0  0  0  0  0  0  0  0  0  0  0  0
   10.4190   -3.7656   13.6922 N   0  0  0  0  0  0  0  0  0  0  0  0
   15.9924   -9.5046   18.4095 C   0  0  0  0  0  0  0  0  0  0  0  0
   16.5979  -10.7549   18.4959 C   0  0  0  0  0  0  0  0  0  0  0  0
   16.5238  -11.6589   17.4279 C   0  0  0  0  0  0  0  0  0  0  0  0
   18.4520  -13.0309   16.9456 C   0  0  2  0  0  0  0  0  0  0  0  0
   14.7097   -7.6974   17.0426 C   0  0  1  0  0  0  0  0  0  0  0  0
   15.2100   -6.6118   18.0194 C   0  0  0  0  0  0  0  0  0  0  0  0
   15.9509   -6.0410   15.9188 C   0  0  0  0  0  0  0  0  0  0  0  0
   16.5090   -4.3899   17.6918 C   0  0  2  0  0  0  0  0  0  0  0  0
   13.1579   -7.6191   16.9737 C   0  0  0  0  0  0  0  0  0  0  0  0
   12.3473   -8.5846   17.5864 C   0  0  0  0  0  0  0  0  0  0  0  0
   10.9581   -8.5144   17.5270 C   0  0  0  0  0  0  0  0  0  0  0  0
   10.3479   -7.4553   16.8657 C   0  0  0  0  0  0  0  0  0  0  0  0
   11.1183   -6.4591   16.2580 C   0  0  0  0  0  0  0  0  0  0  0  0
   12.5151   -6.5565   16.3150 C   0  0  0  0  0  0  0  0  0  0  0  0
   10.4663   -5.3069   15.5700 C   0  0  0  0  0  0  0  0  0  0  0  0
    9.3516   -4.6606   16.1215 C   0  0  0  0  0  0  0  0  0  0  0  0
    8.7846   -3.5692   15.4663 C   0  0  0  0  0  0  0  0  0  0  0  0
    9.3498   -3.1609   14.2621 C   0  0  0  0  0  0  0  0  0  0  0  0
   10.9593   -4.8179   14.3546 C   0  0  0  0  0  0  0  0  0  0  0  0
   15.0555  -11.8759   14.3133 H   0  0  0  0  0  0  0  0  0  0  0  0
   15.2416  -13.2127   15.4458 H   0  0  0  0  0  0  0  0  0  0  0  0
   16.6666  -12.4895   14.6904 H   0  0  0  0  0  0  0  0  0  0  0  0
   14.7134   -9.7554   15.2824 H   0  0  0  0  0  0  0  0  0  0  0  0
   16.4449   -5.8431   13.9459 H   0  0  0  0  0  0  0  0  0  0  0  0
   16.9105   -4.4868   14.9380 H   0  0  0  0  0  0  0  0  0  0  0  0
   16.0971   -8.8346   19.2496 H   0  0  0  0  0  0  0  0  0  0  0  0
   17.1294  -11.0047   19.4008 H   0  0  0  0  0  0  0  0  0  0  0  0
   18.7014  -14.0879   16.8519 H   0  0  0  0  0  0  0  0  0  0  0  0
   19.1845  -12.5779   17.6138 H   0  0  0  0  0  0  0  0  0  0  0  0
   18.5506  -12.5852   15.9543 H   0  0  0  0  0  0  0  0  0  0  0  0
   16.3991   -3.6119   16.9336 H   0  0  0  0  0  0  0  0  0  0  0  0
   17.5663   -4.5779   17.8785 H   0  0  0  0  0  0  0  0  0  0  0  0
   16.0042   -4.0879   18.6094 H   0  0  0  0  0  0  0  0  0  0  0  0
   12.7915   -9.4060   18.1285 H   0  0  0  0  0  0  0  0  0  0  0  0
   10.3522   -9.2738   18.0008 H   0  0  0  0  0  0  0  0  0  0  0  0
    9.2689   -7.4121   16.8324 H   0  0  0  0  0  0  0  0  0  0  0  0
   13.1090   -5.7782   15.8554 H   0  0  0  0  0  0  0  0  0  0  0  0
    8.9380   -4.9890   17.0638 H   0  0  0  0  0  0  0  0  0  0  0  0
    7.9327   -3.0504   15.8810 H   0  0  0  0  0  0  0  0  0  0  0  0
    8.9403   -2.3137   13.7314 H   0  0  0  0  0  0  0  0  0  0  0  0
   11.8293   -5.2628   13.8947 H   0  0  0  0  0  0  0  0  0  0  0  0
   15.2763   -7.7052   14.9403 H   0  0  0  0  0  0  0  0  0  0  0  0
  1  4  1  0
  1 30  1  6
  1 31  1  0
  1 32  1  0
  2 16  1  0
  2 17  1  0
  2 18  1  0
  3 13  1  0
  3 14  1  0
  4  7  1  0
  4 13  2  0
  5 15  1  0
  5 17  2  0
  5 52  1  0
  6 16  2  0
  7  9  2  0
  7 33  1  0
  8 17  1  0
  8 34  1  0
  8 35  1  0
  9 11  1  0
 15  9  1  1
 10 28  1  0
 10 29  2  0
 11 12  2  0
 11 36  1  0
 12 13  1  0
 12 37  1  0
 14 38  1  6
 14 39  1  0
 14 40  1  0
 15 16  1  0
 15 19  1  0
 18 41  1  6
 18 42  1  0
 18 43  1  0
 19 20  1  0
 19 24  2  0
 20 21  2  0
 20 44  1  0
 21 22  1  0
 21 45  1  0
 22 23  2  0
 22 46  1  0
 23 24  1  0
 23 25  1  0
 24 47  1  0
 25 26  2  0
 25 29  1  0
 26 27  1  0
 26 48  1  0
 27 28  2  0
 27 49  1  0
 28 50  1  0
 29 51  1  0
M  CHG  1   5   1
M  END
