36 out
     RDKit          3D

 49 52  0  0  1  0  0  0  0  0999 V2000
   15.9006  -11.7821   15.0230 H   0  0  0  0  0  0  0  0  0  0  0  0
   15.9134   -5.5596   17.1676 N   0  0  0  0  0  0  0  0  0  0  0  0
   17.4103  -12.7400   16.8996 O   0  0  0  0  0  0  0  0  0  0  0  0
   15.9765  -11.1430   15.8903 C   0  0  0  0  0  0  0  0  0  0  0  0
   15.3509   -7.0346   15.6925 N   0  0  0  0  0  0  0  0  0  0  0  0
   15.0294   -6.6228   19.1450 O   0  0  0  0  0  0  0  0  0  0  0  0
   15.3294   -9.9117   15.8875 C   0  0  0  0  0  0  0  0  0  0  0  0
   16.5234   -5.1949   14.8955 N   0  0  0  0  0  0  0  0  0  0  0  0
   15.4114   -9.0458   16.9877 C   0  0  0  0  0  0  0  0  0  0  0  0
   10.3407   -3.5949   13.8683 N   0  0  0  0  0  0  0  0  0  0  0  0
   16.1628   -9.4556   18.1006 C   0  0  0  0  0  0  0  0  0  0  0  0
   16.8271  -10.6785   18.0990 C   0  0  0  0  0  0  0  0  0  0  0  0
   16.7459  -11.5313   16.9889 C   0  0  0  0  0  0  0  0  0  0  0  0
   18.7708  -12.7512   16.4809 C   0  0  2  0  0  0  0  0  0  0  0  0
   14.7614   -7.6396   16.8745 C   0  0  1  0  0  0  0  0  0  0  0  0
   15.2163   -6.6054   17.9270 C   0  0  0  0  0  0  0  0  0  0  0  0
   15.9580   -5.8796   15.8773 C   0  0  0  0  0  0  0  0  0  0  0  0
   16.4533   -4.3270   17.7503 C   0  0  2  0  0  0  0  0  0  0  0  0
   13.2095   -7.6178   16.8096 C   0  0  0  0  0  0  0  0  0  0  0  0
   12.4347   -8.6571   17.3428 C   0  0  0  0  0  0  0  0  0  0  0  0
   11.0434   -8.6258   17.2955 C   0  0  0  0  0  0  0  0  0  0  0  0
   10.3964   -7.5364   16.7240 C   0  0  0  0  0  0  0  0  0  0  0  0
   11.1326   -6.4709   16.1963 C   0  0  0  0  0  0  0  0  0  0  0  0
   12.5307   -6.5280   16.2400 C   0  0  0  0  0  0  0  0  0  0  0  0
   10.4462   -5.2845   15.6103 C   0  0  0  0  0  0  0  0  0  0  0  0
    9.3238   -4.7150   16.2245 C   0  0  0  0  0  0  0  0  0  0  0  0
    8.7206   -3.5900   15.6665 C   0  0  0  0  0  0  0  0  0  0  0  0
    9.2620   -3.0686   14.4955 C   0  0  0  0  0  0  0  0  0  0  0  0
   10.9150   -4.6837   14.4361 C   0  0  0  0  0  0  0  0  0  0  0  0
   14.7771   -9.6167   15.0070 H   0  0  0  0  0  0  0  0  0  0  0  0
   16.4346   -5.5162   13.9251 H   0  0  0  0  0  0  0  0  0  0  0  0
   16.8634   -4.2290   15.0205 H   0  0  0  0  0  0  0  0  0  0  0  0
   16.2746   -8.8239   18.9690 H   0  0  0  0  0  0  0  0  0  0  0  0
   17.5473  -11.0036   19.1726 F   0  0  0  0  0  0  0  0  0  0  0  0
   19.1068  -13.7836   16.3970 H   0  0  0  0  0  0  0  0  0  0  0  0
   19.4242  -12.2456   17.1920 H   0  0  0  0  0  0  0  0  0  0  0  0
   18.8884  -12.2882   15.4997 H   0  0  0  0  0  0  0  0  0  0  0  0
   17.4722   -4.1916   17.3855 H   0  0  0  0  0  0  0  0  0  0  0  0
   16.4475   -4.3948   18.8381 H   0  0  0  0  0  0  0  0  0  0  0  0
   15.8345   -3.4934   17.4123 H   0  0  0  0  0  0  0  0  0  0  0  0
   12.9077   -9.5047   17.8156 H   0  0  0  0  0  0  0  0  0  0  0  0
   10.4646   -9.4398   17.7086 H   0  0  0  0  0  0  0  0  0  0  0  0
    9.3163   -7.5234   16.6988 H   0  0  0  0  0  0  0  0  0  0  0  0
   13.0970   -5.6956   15.8446 H   0  0  0  0  0  0  0  0  0  0  0  0
    8.9290   -5.1305   17.1403 H   0  0  0  0  0  0  0  0  0  0  0  0
    7.8602   -3.1302   16.1304 H   0  0  0  0  0  0  0  0  0  0  0  0
    8.8249   -2.1918   14.0402 H   0  0  0  0  0  0  0  0  0  0  0  0
   11.7916   -5.0650   13.9339 H   0  0  0  0  0  0  0  0  0  0  0  0
   15.3233   -7.4786   14.7723 H   0  0  0  0  0  0  0  0  0  0  0  0
  1  4  1  0
  2 16  1  0
  2 17  1  0
  2 18  1  0
  3 13  1  0
  3 14  1  0
  4  7  1  0
  4 13  2  0
  5 15  1  0
  5 17  2  0
  5 49  1  0
  6 16  2  0
  7  9  2  0
  7 30  1  0
  8 17  1  0
  8 31  1  0
  8 32  1  0
  9 11  1  0
 15  9  1  1
 10 28  1  0
 10 29  2  0
 11 12  2  0
 11 33  1  0
 12 13  1  0
 12 34  1  0
 14 35  1  6
 14 36  1  0
 14 37  1  0
 15 16  1  0
 15 19  1  0
 18 38  1  6
 18 39  1  0
 18 40  1  0
 19 20  1  0
 19 24  2  0
 20 21  2  0
 20 41  1  0
 21 22  1  0
 21 42  1  0
 22 23  2  0
 22 43  1  0
 23 24  1  0
 23 25  1  0
 24 44  1  0
 25 26  2  0
 25 29  1  0
 26 27  1  0
 26 45  1  0
 27 28  2  0
 27 46  1  0
 28 47  1  0
 29 48  1  0
M  CHG  1   5   1
M  END
