39 in
     RDKit          3D

 50 53  0  0  1  0  0  0  0  0999 V2000
   17.0730  -10.8792   19.3946 H   0  0  0  0  0  0  0  0  0  0  0  0
   15.8610   -5.5412   17.1570 N   0  0  0  0  0  0  0  0  0  0  0  0
   17.0321  -12.8958   17.6901 O   0  0  0  0  0  0  0  0  0  0  0  0
   16.5972  -10.6651   18.4490 C   0  0  0  0  0  0  0  0  0  0  0  0
   15.3815   -7.0608   15.6952 N   0  0  0  0  0  0  0  0  0  0  0  0
   15.0616   -6.6434   19.1471 O   0  0  0  0  0  0  0  0  0  0  0  0
   16.0521   -9.3984   18.2335 C   0  0  0  0  0  0  0  0  0  0  0  0
   16.5166   -5.1949   14.8955 N   0  0  0  0  0  0  0  0  0  0  0  0
   15.4282   -9.0706   17.0206 C   0  0  0  0  0  0  0  0  0  0  0  0
   10.3509   -3.6435   13.8532 N   0  0  0  0  0  0  0  0  0  0  0  0
   15.3596  -10.0525   16.0203 C   0  0  0  0  0  0  0  0  0  0  0  0
   15.8859  -11.3217   16.2342 C   0  0  0  0  0  0  0  0  0  0  0  0
   16.4973  -11.6441   17.4514 C   0  0  0  0  0  0  0  0  0  0  0  0
   18.3964  -13.1207   17.3547 C   0  0  2  0  0  0  0  0  0  0  0  0
   14.7852   -7.6627   16.8774 C   0  0  1  0  0  0  0  0  0  0  0  0
   15.2228   -6.6159   17.9254 C   0  0  0  0  0  0  0  0  0  0  0  0
   15.9476   -5.8823   15.8739 C   0  0  0  0  0  0  0  0  0  0  0  0
   16.3949   -4.3100   17.7478 C   0  0  2  0  0  0  0  0  0  0  0  0
   13.2339   -7.6475   16.8040 C   0  0  0  0  0  0  0  0  0  0  0  0
   12.4600   -8.6879   17.3369 C   0  0  0  0  0  0  0  0  0  0  0  0
   11.0684   -8.6551   17.2956 C   0  0  0  0  0  0  0  0  0  0  0  0
   10.4202   -7.5639   16.7285 C   0  0  0  0  0  0  0  0  0  0  0  0
   11.1562   -6.5005   16.1969 C   0  0  0  0  0  0  0  0  0  0  0  0
   12.5540   -6.5591   16.2338 C   0  0  0  0  0  0  0  0  0  0  0  0
   10.4712   -5.3133   15.6131 C   0  0  0  0  0  0  0  0  0  0  0  0
    9.3721   -4.7205   16.2460 C   0  0  0  0  0  0  0  0  0  0  0  0
    8.7714   -3.5943   15.6866 C   0  0  0  0  0  0  0  0  0  0  0  0
    9.2920   -3.0962   14.4958 C   0  0  0  0  0  0  0  0  0  0  0  0
   10.9222   -4.7338   14.4224 C   0  0  0  0  0  0  0  0  0  0  0  0
   16.0969   -8.6529   19.0168 H   0  0  0  0  0  0  0  0  0  0  0  0
   16.4261   -5.5141   13.9246 H   0  0  0  0  0  0  0  0  0  0  0  0
   16.8597   -4.2304   15.0215 H   0  0  0  0  0  0  0  0  0  0  0  0
   14.8852   -9.8600   15.0700 H   0  0  0  0  0  0  0  0  0  0  0  0
   18.5988  -14.1883   17.4315 H   0  0  0  0  0  0  0  0  0  0  0  0
   19.0774  -12.6072   18.0333 H   0  0  0  0  0  0  0  0  0  0  0  0
   18.6164  -12.8154   16.3301 H   0  0  0  0  0  0  0  0  0  0  0  0
   16.2456   -3.4945   17.0370 H   0  0  0  0  0  0  0  0  0  0  0  0
   17.4600   -4.4475   17.9345 H   0  0  0  0  0  0  0  0  0  0  0  0
   15.8658   -4.0923   18.6756 H   0  0  0  0  0  0  0  0  0  0  0  0
   12.9341   -9.5359   17.8079 H   0  0  0  0  0  0  0  0  0  0  0  0
   10.4900   -9.4688   17.7101 H   0  0  0  0  0  0  0  0  0  0  0  0
    9.3400   -7.5474   16.7085 H   0  0  0  0  0  0  0  0  0  0  0  0
   13.1188   -5.7268   15.8362 H   0  0  0  0  0  0  0  0  0  0  0  0
    8.9968   -5.1192   17.1771 H   0  0  0  0  0  0  0  0  0  0  0  0
    7.9280   -3.1169   16.1637 H   0  0  0  0  0  0  0  0  0  0  0  0
    8.8552   -2.2208   14.0376 H   0  0  0  0  0  0  0  0  0  0  0  0
   11.7849   -5.1335   13.9107 H   0  0  0  0  0  0  0  0  0  0  0  0
   15.3453   -7.4999   14.7728 H   0  0  0  0  0  0  0  0  0  0  0  0
   15.7913  -12.2645   15.2036 C   0  0  0  0  0  0  0  0  0  0  0  0
   15.7225  -13.0571   14.3635 N   0  0  0  0  0  0  0  0  0  0  0  0
  1  4  1  0
  2 16  1  0
  2 17  1  0
  2 18  1  0
  3 13  1  0
  3 14  1  0
  4  7  1  0
  4 13  2  0
  5 15  1  0
  5 17  2  0
  5 48  1  0
  6 16  2  0
  7  9  2  0
  7 30  1  0
  8 17  1  0
  8 31  1  0
  8 32  1  0
  9 11  1  0
 15  9  1  1
 10 28  1  0
 10 29  2  0
 11 12  2  0
 11 33  1  0
 12 13  1  0
 12 49  1  0
 14 34  1  6
 14 35  1  0
 14 36  1  0
 15 16  1  0
 15 19  1  0
 18 37  1  6
 18 38  1  0
 18 39  1  0
 19 20  1  0
 19 24  2  0
 20 21  2  0
 20 40  1  0
 21 22  1  0
 21 41  1  0
 22 23  2  0
 22 42  1  0
 23 24  1  0
 23 25  1  0
 24 43  1  0
 25 26  2  0
 25 29  1  0
 26 27  1  0
 26 44  1  0
 27 28  2  0
 27 45  1  0
 28 46  1  0
 29 47  1  0
 49 50  3  0
M  CHG  1   5   1
M  END
