34
     RDKit          3D

 63 67  0  0  1  0  0  0  0  0999 V2000
   17.2087  -11.2821   19.3319 O   0  0  0  0  0  0  0  0  0  0  0  0
   16.1207   -5.6796   17.4654 N   0  0  0  0  0  0  0  0  0  0  0  0
   17.0278  -12.8805   17.1484 O   0  0  0  0  0  0  0  0  0  0  0  0
   16.6166  -10.7537   18.1941 C   0  0  0  0  0  0  0  0  0  0  0  0
   15.4053   -6.7877   15.7343 N   0  0  0  0  0  0  0  0  0  0  0  0
   15.0897   -6.9354   19.2259 O   0  0  0  0  0  0  0  0  0  0  0  0
   16.0747   -9.4571   18.1175 C   0  0  0  0  0  0  0  0  0  0  0  0
   16.8564   -5.0565   15.3139 N   0  0  0  0  0  0  0  0  0  0  0  0
   15.4877   -8.9652   16.9451 C   0  0  0  0  0  0  0  0  0  0  0  0
   10.2380   -3.3164   14.1751 N   0  0  0  0  0  0  0  0  0  0  0  0
   15.5153   -9.7869   15.8227 C   0  0  0  0  0  0  0  0  0  0  0  0
   16.0357  -11.0693   15.8729 C   0  0  0  0  0  0  0  0  0  0  0  0
   16.5586  -11.5793   17.0614 C   0  0  0  0  0  0  0  0  0  0  0  0
   18.1024  -13.2607   16.2813 C   0  0  2  0  0  0  0  0  0  0  0  0
   14.8069   -7.5686   16.8160 C   0  0  1  0  0  0  0  0  0  0  0  0
   15.3161   -6.7577   18.0292 C   0  0  0  0  0  0  0  0  0  0  0  0
   16.1627   -5.7942   16.1453 C   0  0  0  0  0  0  0  0  0  0  0  0
   16.7946   -4.6386   18.2491 C   0  0  2  0  0  0  0  0  0  0  0  0
   13.2604   -7.5465   16.7090 C   0  0  0  0  0  0  0  0  0  0  0  0
   12.4895   -8.6263   17.1598 C   0  0  0  0  0  0  0  0  0  0  0  0
   11.0978   -8.5826   17.1451 C   0  0  0  0  0  0  0  0  0  0  0  0
   10.4478   -7.4428   16.6869 C   0  0  0  0  0  0  0  0  0  0  0  0
   11.1820   -6.3431   16.2343 C   0  0  0  0  0  0  0  0  0  0  0  0
   12.5802   -6.4114   16.2361 C   0  0  0  0  0  0  0  0  0  0  0  0
   10.4887   -5.1011   15.7960 C   0  0  0  0  0  0  0  0  0  0  0  0
    9.4878   -4.5202   16.5844 C   0  0  0  0  0  0  0  0  0  0  0  0
    8.8685   -3.3433   16.1681 C   0  0  0  0  0  0  0  0  0  0  0  0
    9.2754   -2.7797   14.9623 C   0  0  0  0  0  0  0  0  0  0  0  0
   10.8280   -4.4600   14.5993 C   0  0  0  0  0  0  0  0  0  0  0  0
   16.0994   -8.8183   18.9736 H   0  0  0  0  0  0  0  0  0  0  0  0
   16.8388   -5.2909   14.3162 H   0  0  0  0  0  0  0  0  0  0  0  0
   17.2118   -4.1170   15.5464 H   0  0  0  0  0  0  0  0  0  0  0  0
   15.1239   -9.4176   14.8860 H   0  0  0  0  0  0  0  0  0  0  0  0
   16.0199  -11.6591   14.9735 H   0  0  0  0  0  0  0  0  0  0  0  0
   17.8424  -13.1002   15.2338 H   0  0  0  0  0  0  0  0  0  0  0  0
   18.3747  -14.3084   16.3931 H   0  0  0  0  0  0  0  0  0  0  0  0
   19.0176  -12.7134   16.5065 H   0  0  0  0  0  0  0  0  0  0  0  0
   17.8690   -4.7244   18.0805 H   0  0  0  0  0  0  0  0  0  0  0  0
   16.5681   -4.7561   19.3093 H   0  0  0  0  0  0  0  0  0  0  0  0
   16.4431   -3.6686   17.8914 H   0  0  0  0  0  0  0  0  0  0  0  0
   12.9679   -9.5136   17.5470 H   0  0  0  0  0  0  0  0  0  0  0  0
   10.5221   -9.4258   17.5013 H   0  0  0  0  0  0  0  0  0  0  0  0
    9.3676   -7.4136   16.6947 H   0  0  0  0  0  0  0  0  0  0  0  0
   13.1416   -5.5466   15.9085 H   0  0  0  0  0  0  0  0  0  0  0  0
    9.1987   -4.9725   17.5221 H   0  0  0  0  0  0  0  0  0  0  0  0
    8.0977   -2.8763   16.7638 H   0  0  0  0  0  0  0  0  0  0  0  0
    8.8263   -1.8605   14.6124 H   0  0  0  0  0  0  0  0  0  0  0  0
   11.6045   -4.8530   13.9599 H   0  0  0  0  0  0  0  0  0  0  0  0
   17.4132  -10.5108   20.5227 C   0  0  1  0  0  0  0  0  0  0  0  0
   18.5446   -9.4665   20.4743 C   0  0  1  0  0  0  0  0  0  0  0  0
   18.0699   -8.3546   21.4190 C   0  0  2  0  0  0  0  0  0  0  0  0
   16.5415   -8.3605   21.3041 C   0  0  1  0  0  0  0  0  0  0  0  0
   16.1516   -9.8266   21.0783 C   0  0  2  0  0  0  0  0  0  0  0  0
   17.7226  -11.2544   21.2506 H   0  0  0  0  0  0  0  0  0  0  0  0
   19.4977   -9.8867   20.7962 H   0  0  0  0  0  0  0  0  0  0  0  0
   18.7096   -9.0773   19.4712 H   0  0  0  0  0  0  0  0  0  0  0  0
   18.5060   -7.3838   21.1794 H   0  0  0  0  0  0  0  0  0  0  0  0
   18.3573   -8.5968   22.4435 H   0  0  0  0  0  0  0  0  0  0  0  0
   16.0414   -7.9208   22.1579 H   0  0  0  0  0  0  0  0  0  0  0  0
   16.2222   -7.7514   20.4656 H   0  0  0  0  0  0  0  0  0  0  0  0
   15.8924  -10.2981   22.0267 H   0  0  0  0  0  0  0  0  0  0  0  0
   15.2786   -9.9171   20.4310 H   0  0  0  0  0  0  0  0  0  0  0  0
   15.5096   -7.1631   14.7810 H   0  0  0  0  0  0  0  0  0  0  0  0
  1  4  1  0
  1 49  1  0
  2 16  1  0
  2 17  1  0
  2 18  1  0
  3 13  1  0
  3 14  1  0
  4  7  1  0
  4 13  2  0
  5 15  1  0
  5 17  2  0
  5 63  1  0
  6 16  2  0
  7  9  2  0
  7 30  1  0
  8 17  1  0
  8 31  1  0
  8 32  1  0
  9 11  1  0
 15  9  1  1
 10 28  1  0
 10 29  2  0
 11 12  2  0
 11 33  1  0
 12 13  1  0
 12 34  1  0
 14 35  1  6
 14 36  1  0
 14 37  1  0
 15 16  1  0
 15 19  1  0
 18 38  1  1
 18 39  1  0
 18 40  1  0
 19 20  1  0
 19 24  2  0
 20 21  2  0
 20 41  1  0
 21 22  1  0
 21 42  1  0
 22 23  2  0
 22 43  1  0
 23 24  1  0
 23 25  1  0
 24 44  1  0
 25 26  2  0
 25 29  1  0
 26 27  1  0
 26 45  1  0
 27 28  2  0
 27 46  1  0
 28 47  1  0
 29 48  1  0
 49 50  1  0
 49 53  1  0
 49 54  1  1
 50 51  1  0
 50 55  1  1
 50 56  1  0
 51 52  1  0
 51 57  1  6
 51 58  1  0
 52 53  1  0
 52 59  1  1
 52 60  1  0
 53 61  1  1
 53 62  1  0
M  CHG  1   5   1
M  END
