30
     RDKit          3D

 56 59  0  0  1  0  0  0  0  0999 V2000
   17.6414  -11.1703   19.3532 O   0  0  0  0  0  0  0  0  0  0  0  0
   16.2127   -5.7821   17.1945 N   0  0  0  0  0  0  0  0  0  0  0  0
   17.7929  -12.6776   17.1101 O   0  0  0  0  0  0  0  0  0  0  0  0
   16.9578  -10.7183   18.2362 C   0  0  0  0  0  0  0  0  0  0  0  0
   15.3855   -7.0638   15.6735 N   0  0  0  0  0  0  0  0  0  0  0  0
   15.5954   -7.0657   19.1480 O   0  0  0  0  0  0  0  0  0  0  0  0
   16.2125   -9.5199   18.2018 C   0  0  0  0  0  0  0  0  0  0  0  0
   16.5234   -5.1949   14.8955 N   0  0  0  0  0  0  0  0  0  0  0  0
   15.5642   -9.1005   17.0283 C   0  0  0  0  0  0  0  0  0  0  0  0
   10.3249   -3.6852   13.8624 N   0  0  0  0  0  0  0  0  0  0  0  0
   15.6603   -9.9214   15.9087 C   0  0  0  0  0  0  0  0  0  0  0  0
   16.3752  -11.1003   15.9208 C   0  0  0  0  0  0  0  0  0  0  0  0
   17.0416  -11.5114   17.0768 C   0  0  0  0  0  0  0  0  0  0  0  0
   19.0530  -12.7025   16.4285 C   0  0  2  0  0  0  0  0  0  0  0  0
   14.8586   -7.7234   16.8547 C   0  0  1  0  0  0  0  0  0  0  0  0
   15.5716   -6.8844   17.9296 C   0  0  0  0  0  0  0  0  0  0  0  0
   16.0671   -5.9565   15.8820 C   0  0  0  0  0  0  0  0  0  0  0  0
   16.9825   -4.7050   17.8252 C   0  0  2  0  0  0  0  0  0  0  0  0
   13.3155   -7.5226   16.9791 C   0  0  0  0  0  0  0  0  0  0  0  0
   12.5302   -8.4490   17.6810 C   0  0  0  0  0  0  0  0  0  0  0  0
   11.1414   -8.3693   17.6955 C   0  0  0  0  0  0  0  0  0  0  0  0
   10.5075   -7.3055   17.0694 C   0  0  0  0  0  0  0  0  0  0  0  0
   11.2531   -6.3208   16.4153 C   0  0  0  0  0  0  0  0  0  0  0  0
   12.6503   -6.4427   16.3699 C   0  0  0  0  0  0  0  0  0  0  0  0
   10.5591   -5.1695   15.7708 C   0  0  0  0  0  0  0  0  0  0  0  0
    9.5182   -4.4926   16.4198 C   0  0  0  0  0  0  0  0  0  0  0  0
    8.8896   -3.4187   15.7935 C   0  0  0  0  0  0  0  0  0  0  0  0
    9.3234   -3.0555   14.5218 C   0  0  0  0  0  0  0  0  0  0  0  0
   10.9234   -4.7248   14.4955 C   0  0  0  0  0  0  0  0  0  0  0  0
   16.1635   -8.8881   19.0737 H   0  0  0  0  0  0  0  0  0  0  0  0
   16.4169   -5.4954   13.9202 H   0  0  0  0  0  0  0  0  0  0  0  0
   16.8664   -4.2331   15.0402 H   0  0  0  0  0  0  0  0  0  0  0  0
   15.1622   -9.6433   14.9976 H   0  0  0  0  0  0  0  0  0  0  0  0
   16.3971  -11.6721   15.0064 H   0  0  0  0  0  0  0  0  0  0  0  0
   19.5709  -13.6471   16.5799 H   0  0  0  0  0  0  0  0  0  0  0  0
   19.7243  -11.9248   16.7972 H   0  0  0  0  0  0  0  0  0  0  0  0
   18.9237  -12.5791   15.3518 H   0  0  0  0  0  0  0  0  0  0  0  0
   16.8156   -3.7852   17.2612 H   0  0  0  0  0  0  0  0  0  0  0  0
   18.0390   -4.9718   17.7919 H   0  0  0  0  0  0  0  0  0  0  0  0
   16.6565   -4.5755   18.8571 H   0  0  0  0  0  0  0  0  0  0  0  0
   12.9988   -9.2752   18.1952 H   0  0  0  0  0  0  0  0  0  0  0  0
   10.5570   -9.1159   18.2138 H   0  0  0  0  0  0  0  0  0  0  0  0
    9.4290   -7.2475   17.1019 H   0  0  0  0  0  0  0  0  0  0  0  0
   13.2190   -5.6847   15.8488 H   0  0  0  0  0  0  0  0  0  0  0  0
    9.2029   -4.7902   17.4094 H   0  0  0  0  0  0  0  0  0  0  0  0
    8.0889   -2.8806   16.2795 H   0  0  0  0  0  0  0  0  0  0  0  0
    8.8623   -2.2239   14.0092 H   0  0  0  0  0  0  0  0  0  0  0  0
   11.7386   -5.1949   13.9668 H   0  0  0  0  0  0  0  0  0  0  0  0
   17.7121  -10.3814   20.5414 C   0  0  2  0  0  0  0  0  0  0  0  0
   18.7124   -9.2215   20.4072 C   0  0  2  0  0  0  0  0  0  0  0  0
   18.0575  -11.0428   21.3364 H   0  0  0  0  0  0  0  0  0  0  0  0
   16.7276  -10.0348   20.8586 H   0  0  0  0  0  0  0  0  0  0  0  0
   18.8270   -8.6962   21.3556 H   0  0  0  0  0  0  0  0  0  0  0  0
   18.3920   -8.4876   19.6687 H   0  0  0  0  0  0  0  0  0  0  0  0
   19.6962   -9.5866   20.1126 H   0  0  0  0  0  0  0  0  0  0  0  0
   15.3234   -7.4775   14.7410 H   0  0  0  0  0  0  0  0  0  0  0  0
  1  4  1  0
  1 49  1  0
  2 16  1  0
  2 17  1  0
  2 18  1  0
  3 13  1  0
  3 14  1  0
  4  7  1  0
  4 13  2  0
  5 15  1  0
  5 17  2  0
  5 56  1  0
  6 16  2  0
  7  9  2  0
  7 30  1  0
  8 17  1  0
  8 31  1  0
  8 32  1  0
  9 11  1  0
 15  9  1  6
 10 28  1  0
 10 29  2  0
 11 12  2  0
 11 33  1  0
 12 13  1  0
 12 34  1  0
 14 35  1  6
 14 36  1  0
 14 37  1  0
 15 16  1  0
 15 19  1  0
 18 38  1  6
 18 39  1  0
 18 40  1  0
 19 20  1  0
 19 24  2  0
 20 21  2  0
 20 41  1  0
 21 22  1  0
 21 42  1  0
 22 23  2  0
 22 43  1  0
 23 24  1  0
 23 25  1  0
 24 44  1  0
 25 26  2  0
 25 29  1  0
 26 27  1  0
 26 45  1  0
 27 28  2  0
 27 46  1  0
 28 47  1  0
 29 48  1  0
 49 50  1  0
 49 51  1  1
 49 52  1  0
 50 53  1  1
 50 54  1  0
 50 55  1  0
M  CHG  1   5   1
M  END
