4eD deprotonated
     RDKit          3D

 31 33  0  0  1  0  0  0  0  0999 V2000
   -0.3977    3.2308   16.2049 N   0  0  0  0  0  0  0  0  0  0  0  0
   -1.3093    2.8639   15.2959 N   0  0  0  0  0  0  0  0  0  0  0  0
   -0.9130    2.4671   14.0586 C   0  0  0  0  0  0  0  0  0  0  0  0
    0.4800    2.4281   13.7433 C   0  0  0  0  0  0  0  0  0  0  0  0
    1.3835    2.8004   14.6833 N   0  0  0  0  0  0  0  0  0  0  0  0
    0.8817    3.1741   15.8500 C   0  0  0  0  0  0  0  0  0  0  0  0
   -4.1938    1.4639   11.4479 C   0  0  0  0  0  0  0  0  0  0  0  0
   -4.0554    0.8236   12.6896 C   0  0  0  0  0  0  0  0  0  0  0  0
   -2.9799    1.1547   13.5341 C   0  0  0  0  0  0  0  0  0  0  0  0
   -2.0268    2.1266   13.1507 C   0  0  0  0  0  0  0  0  0  0  0  0
   -2.1796    2.7634   11.8986 C   0  0  0  0  0  0  0  0  0  0  0  0
   -3.2544    2.4337   11.0505 C   0  0  0  0  0  0  0  0  0  0  0  0
    2.2099    1.2948    9.9350 C   0  0  0  0  0  0  0  0  0  0  0  0
    1.0660    0.6300   10.4099 C   0  0  0  0  0  0  0  0  0  0  0  0
    0.5124    0.9806   11.6574 C   0  0  0  0  0  0  0  0  0  0  0  0
    1.0684    2.0173   12.4445 C   0  0  0  0  0  0  0  0  0  0  0  0
    2.2310    2.6601   11.9526 C   0  0  0  0  0  0  0  0  0  0  0  0
    2.8020    2.3023   10.7154 C   0  0  0  0  0  0  0  0  0  0  0  0
    1.7744    3.5753   16.7838 N   0  0  0  0  0  0  0  0  0  0  0  0
   -3.4212    3.2125    9.5190 Cl  0  0  0  0  0  0  0  0  0  0  0  0
   -5.2371    1.1435   10.6319 O   0  0  0  0  0  0  0  0  0  0  0  0
   -4.7766    0.0801   12.9959 H   0  0  0  0  0  0  0  0  0  0  0  0
   -2.8876    0.6615   14.4920 H   0  0  0  0  0  0  0  0  0  0  0  0
   -1.4662    3.5115   11.5833 H   0  0  0  0  0  0  0  0  0  0  0  0
    2.6435    1.0209    8.9839 H   0  0  0  0  0  0  0  0  0  0  0  0
    0.6170   -0.1565    9.8207 H   0  0  0  0  0  0  0  0  0  0  0  0
   -0.3530    0.4377   12.0047 H   0  0  0  0  0  0  0  0  0  0  0  0
    2.6995    3.4391   12.5375 H   0  0  0  0  0  0  0  0  0  0  0  0
    3.6955    2.7985   10.3649 H   0  0  0  0  0  0  0  0  0  0  0  0
    2.7055    3.7850   16.4693 H   0  0  0  0  0  0  0  0  0  0  0  0
    1.4004    4.0833   17.5680 H   0  0  0  0  0  0  0  0  0  0  0  0
  1  2  1  0
  1  6  2  0
  2  3  2  0
  3  4  1  0
  3 10  1  0
  4  5  2  0
  4 16  1  0
  5  6  1  0
  6 19  1  0
  7  8  1  0
  7 12  2  0
  7 21  1  0
  8  9  2  0
  8 22  1  0
  9 10  1  0
  9 23  1  0
 10 11  2  0
 11 12  1  0
 11 24  1  0
 12 20  1  0
 13 14  1  0
 13 18  2  0
 13 25  1  0
 14 15  2  0
 14 26  1  0
 15 16  1  0
 15 27  1  0
 16 17  2  0
 17 18  1  0
 17 28  1  0
 18 29  1  0
 19 30  1  0
 19 31  1  0
M  CHG  1  21  -1
M  END
