4r U
     RDKit          3D

 33 35  0  0  1  0  0  0  0  0999 V2000
   -0.4027    3.1329   16.1812 N   0  0  0  0  0  0  0  0  0  0  0  0
   -1.2902    2.8137   15.2228 N   0  0  0  0  0  0  0  0  0  0  0  0
   -0.8700    2.5157   13.9580 C   0  0  0  0  0  0  0  0  0  0  0  0
    0.5166    2.4803   13.6740 C   0  0  0  0  0  0  0  0  0  0  0  0
    1.4127    2.8296   14.6382 N   0  0  0  0  0  0  0  0  0  0  0  0
    0.9111    3.1547   15.8521 C   0  0  0  0  0  0  0  0  0  0  0  0
   -3.9542    1.7307   11.0376 N   0  0  0  0  0  0  0  0  0  0  0  0
   -2.9275    2.5723   10.7620 C   0  0  0  0  0  0  0  0  0  0  0  0
   -1.9221    2.8449   11.6903 C   0  0  0  0  0  0  0  0  0  0  0  0
   -1.9637    2.2713   12.9665 C   0  0  0  0  0  0  0  0  0  0  0  0
   -3.0505    1.4386   13.2621 C   0  0  0  0  0  0  0  0  0  0  0  0
   -4.0017    1.1598   12.2723 C   0  0  0  0  0  0  0  0  0  0  0  0
    2.2129    1.2519    9.9108 C   0  0  0  0  0  0  0  0  0  0  0  0
    2.8444    2.2373   10.6606 C   0  0  0  0  0  0  0  0  0  0  0  0
    2.2937    2.6383   11.8779 C   0  0  0  0  0  0  0  0  0  0  0  0
    1.1254    2.0392   12.3749 C   0  0  0  0  0  0  0  0  0  0  0  0
    0.5508    1.0005   11.6299 C   0  0  0  0  0  0  0  0  0  0  0  0
    1.0649    0.6387   10.3915 C   0  0  0  0  0  0  0  0  0  0  0  0
    1.8110    3.5643   16.8271 N   0  0  0  0  0  0  0  0  0  0  0  0
   -5.1194    0.1522   12.5332 C   0  0  1  0  0  0  0  0  0  0  0  0
   -2.8593    3.3143    9.2041 Cl  0  0  0  0  0  0  0  0  0  0  0  0
    2.7060    0.8864    8.7059 F   0  0  0  0  0  0  0  0  0  0  0  0
   -5.9856    0.0561   11.5210 F   0  0  0  0  0  0  0  0  0  0  0  0
   -4.5868   -1.0518   12.7413 F   0  0  0  0  0  0  0  0  0  0  0  0
   -5.7860    0.5132   13.6266 F   0  0  0  0  0  0  0  0  0  0  0  0
   -1.0976    3.4788   11.4200 H   0  0  0  0  0  0  0  0  0  0  0  0
   -3.1262    0.9684   14.2315 H   0  0  0  0  0  0  0  0  0  0  0  0
    3.7404    2.7104   10.2841 H   0  0  0  0  0  0  0  0  0  0  0  0
    2.7752    3.4330   12.4266 H   0  0  0  0  0  0  0  0  0  0  0  0
   -0.3188    0.4777   11.9956 H   0  0  0  0  0  0  0  0  0  0  0  0
    0.5840   -0.1336    9.8104 H   0  0  0  0  0  0  0  0  0  0  0  0
    2.7410    3.8486   16.5347 H   0  0  0  0  0  0  0  0  0  0  0  0
    1.4528    3.8391   17.7386 H   0  0  0  0  0  0  0  0  0  0  0  0
  1  2  1  0
  1  6  2  0
  2  3  2  0
  3  4  1  0
  3 10  1  0
  4  5  2  0
  4 16  1  0
  5  6  1  0
  6 19  1  0
  7  8  1  0
  7 12  2  0
  8  9  2  0
  8 21  1  0
  9 10  1  0
  9 26  1  0
 10 11  2  0
 11 12  1  0
 11 27  1  0
 12 20  1  0
 13 14  1  0
 13 18  2  0
 13 22  1  0
 14 15  2  0
 14 28  1  0
 15 16  1  0
 15 29  1  0
 16 17  2  0
 17 18  1  0
 17 30  1  0
 18 31  1  0
 19 32  1  0
 19 33  1  0
 20 23  1  6
 20 24  1  0
 20 25  1  0
M  END
