4a flipped
     RDKit          3D

 31 33  0  0  1  0  0  0  0  0999 V2000
    0.9398    3.1991   15.9122 N   0  0  0  0  0  0  0  0  0  0  0  0
    1.3477    2.8930   14.6698 N   0  0  0  0  0  0  0  0  0  0  0  0
    0.4526    2.5048   13.7138 C   0  0  0  0  0  0  0  0  0  0  0  0
   -0.9316    2.5031   14.0207 C   0  0  0  0  0  0  0  0  0  0  0  0
   -1.3374    2.7637   15.2962 N   0  0  0  0  0  0  0  0  0  0  0  0
   -0.3792    3.0929   16.1902 C   0  0  0  0  0  0  0  0  0  0  0  0
    2.2361    1.1729   10.0024 C   0  0  0  0  0  0  0  0  0  0  0  0
    1.1742    0.5264   10.5460 C   0  0  0  0  0  0  0  0  0  0  0  0
    0.5806    0.9243   11.7470 C   0  0  0  0  0  0  0  0  0  0  0  0
    1.0704    2.0497   12.4271 C   0  0  0  0  0  0  0  0  0  0  0  0
    2.1790    2.7092   11.8702 C   0  0  0  0  0  0  0  0  0  0  0  0
    2.7234    2.2515   10.6671 C   0  0  0  0  0  0  0  0  0  0  0  0
   -4.1542    1.8633   11.2333 C   0  0  0  0  0  0  0  0  0  0  0  0
   -4.2988    1.4717   12.5587 C   0  0  0  0  0  0  0  0  0  0  0  0
   -3.2537    1.6818   13.4541 C   0  0  0  0  0  0  0  0  0  0  0  0
   -2.0499    2.2768   13.0429 C   0  0  0  0  0  0  0  0  0  0  0  0
   -1.9429    2.6884   11.7059 C   0  0  0  0  0  0  0  0  0  0  0  0
   -2.9785    2.4670   10.8036 C   0  0  0  0  0  0  0  0  0  0  0  0
   -0.7817    3.3186   17.4990 N   0  0  0  0  0  0  0  0  0  0  0  0
   -0.2494    0.3656   12.1538 H   0  0  0  0  0  0  0  0  0  0  0  0
    2.6007    3.5751   12.3605 H   0  0  0  0  0  0  0  0  0  0  0  0
   -4.9599    1.7059   10.5324 H   0  0  0  0  0  0  0  0  0  0  0  0
   -5.2154    1.0040   12.8882 H   0  0  0  0  0  0  0  0  0  0  0  0
   -3.3812    1.3492   14.4737 H   0  0  0  0  0  0  0  0  0  0  0  0
   -1.0538    3.1915   11.3529 H   0  0  0  0  0  0  0  0  0  0  0  0
   -2.8786    2.7871    9.7751 H   0  0  0  0  0  0  0  0  0  0  0  0
   -1.7131    3.0241   17.7776 H   0  0  0  0  0  0  0  0  0  0  0  0
   -0.0844    3.5756   18.1963 H   0  0  0  0  0  0  0  0  0  0  0  0
    0.7531   -0.3343   10.0478 H   0  0  0  0  0  0  0  0  0  0  0  0
    3.5672    2.7953   10.2688 H   0  0  0  0  0  0  0  0  0  0  0  0
    2.6625    0.8246    9.0732 H   0  0  0  0  0  0  0  0  0  0  0  0
  1  2  1  0
  1  6  2  0
  2  3  2  0
  3  4  1  0
  3 10  1  0
  4  5  2  0
  4 16  1  0
  5  6  1  0
  6 19  1  0
  7  8  1  0
  7 12  2  0
  7 31  1  0
  8  9  2  0
  8 29  1  0
  9 10  1  0
  9 20  1  0
 10 11  2  0
 11 12  1  0
 11 21  1  0
 12 30  1  0
 13 14  1  0
 13 18  2  0
 13 22  1  0
 14 15  2  0
 14 23  1  0
 15 16  1  0
 15 24  1  0
 16 17  2  0
 17 18  1  0
 17 25  1  0
 18 26  1  0
 19 27  1  0
 19 28  1  0
M  END
