4g
     RDKit          3D

 36 38  0  0  1  0  0  0  0  0999 V2000
   -0.4071    3.1032   16.2445 N   0  0  0  0  0  0  0  0  0  0  0  0
   -1.3079    2.7712   15.3054 N   0  0  0  0  0  0  0  0  0  0  0  0
   -0.9182    2.5047   14.0235 C   0  0  0  0  0  0  0  0  0  0  0  0
    0.4634    2.5032   13.7056 C   0  0  0  0  0  0  0  0  0  0  0  0
    1.3701    2.8912   14.6473 N   0  0  0  0  0  0  0  0  0  0  0  0
    0.8916    3.1831   15.8767 C   0  0  0  0  0  0  0  0  0  0  0  0
   -4.1718    1.9330   11.2276 N   0  0  0  0  0  0  0  0  0  0  0  0
   -3.0644    2.6385   10.8857 C   0  0  0  0  0  0  0  0  0  0  0  0
   -2.0004    2.8497   11.7668 C   0  0  0  0  0  0  0  0  0  0  0  0
   -2.0450    2.3008   13.0574 C   0  0  0  0  0  0  0  0  0  0  0  0
   -3.1987    1.5829   13.4146 C   0  0  0  0  0  0  0  0  0  0  0  0
   -4.2257    1.4157   12.4814 C   0  0  0  0  0  0  0  0  0  0  0  0
    2.2142    1.2371    9.9778 C   0  0  0  0  0  0  0  0  0  0  0  0
    2.8272    2.2351   10.7256 C   0  0  0  0  0  0  0  0  0  0  0  0
    2.2562    2.6391   11.9293 C   0  0  0  0  0  0  0  0  0  0  0  0
    1.0663    2.0620   12.4018 C   0  0  0  0  0  0  0  0  0  0  0  0
    0.4853    1.0366   11.6405 C   0  0  0  0  0  0  0  0  0  0  0  0
    1.0435    0.6398   10.4295 C   0  0  0  0  0  0  0  0  0  0  0  0
    1.8045    3.6184   16.8271 N   0  0  0  0  0  0  0  0  0  0  0  0
   -5.4801    0.6371   12.8326 C   0  0  1  0  0  0  0  0  0  0  0  0
   -3.0426    3.2011    9.4774 C   0  0  2  0  0  0  0  0  0  0  0  0
   -1.1482    3.4371   11.4583 H   0  0  0  0  0  0  0  0  0  0  0  0
   -3.2870    1.1487   14.4003 H   0  0  0  0  0  0  0  0  0  0  0  0
    2.6507    0.9163    9.0441 H   0  0  0  0  0  0  0  0  0  0  0  0
    3.7381    2.6954   10.3708 H   0  0  0  0  0  0  0  0  0  0  0  0
    2.7389    3.4316   12.4820 H   0  0  0  0  0  0  0  0  0  0  0  0
   -0.4057    0.5310   11.9848 H   0  0  0  0  0  0  0  0  0  0  0  0
    0.5809   -0.1499    9.8528 H   0  0  0  0  0  0  0  0  0  0  0  0
    2.7287    3.9036   16.5169 H   0  0  0  0  0  0  0  0  0  0  0  0
    1.4769    3.8400   17.7663 H   0  0  0  0  0  0  0  0  0  0  0  0
   -5.2440   -0.2061   13.4840 H   0  0  0  0  0  0  0  0  0  0  0  0
   -6.1857    1.2810   13.3550 H   0  0  0  0  0  0  0  0  0  0  0  0
   -5.9731    0.2416   11.9436 H   0  0  0  0  0  0  0  0  0  0  0  0
   -2.1750    3.8411    9.3131 H   0  0  0  0  0  0  0  0  0  0  0  0
   -3.9368    3.7948    9.2827 H   0  0  0  0  0  0  0  0  0  0  0  0
   -2.9999    2.3906    8.7494 H   0  0  0  0  0  0  0  0  0  0  0  0
  1  2  1  0
  1  6  2  0
  2  3  2  0
  3  4  1  0
  3 10  1  0
  4  5  2  0
  4 16  1  0
  5  6  1  0
  6 19  1  0
  7  8  1  0
  7 12  2  0
  8  9  2  0
  8 21  1  0
  9 10  1  0
  9 22  1  0
 10 11  2  0
 11 12  1  0
 11 23  1  0
 12 20  1  0
 13 14  1  0
 13 18  2  0
 13 24  1  0
 14 15  2  0
 14 25  1  0
 15 16  1  0
 15 26  1  0
 16 17  2  0
 17 18  1  0
 17 27  1  0
 18 28  1  0
 19 29  1  0
 19 30  1  0
 20 31  1  1
 20 32  1  0
 20 33  1  0
 21 34  1  1
 21 35  1  0
 21 36  1  0
M  END
