4lU
     RDKit          3D

 36 38  0  0  1  0  0  0  0  0999 V2000
   -0.4055    3.0449   16.1887 N   0  0  0  0  0  0  0  0  0  0  0  0
   -1.2896    2.7115   15.2305 N   0  0  0  0  0  0  0  0  0  0  0  0
   -0.8689    2.4388   13.9595 C   0  0  0  0  0  0  0  0  0  0  0  0
    0.5197    2.4340   13.6762 C   0  0  0  0  0  0  0  0  0  0  0  0
    1.4125    2.8016   14.6414 N   0  0  0  0  0  0  0  0  0  0  0  0
    0.9065    3.1069   15.8578 C   0  0  0  0  0  0  0  0  0  0  0  0
   -3.9258    1.5948   11.0143 N   0  0  0  0  0  0  0  0  0  0  0  0
   -2.9333    2.4843   10.7633 C   0  0  0  0  0  0  0  0  0  0  0  0
   -1.9342    2.7786   11.6938 C   0  0  0  0  0  0  0  0  0  0  0  0
   -1.9591    2.1819   12.9608 C   0  0  0  0  0  0  0  0  0  0  0  0
   -3.0166    1.3023   13.2358 C   0  0  0  0  0  0  0  0  0  0  0  0
   -3.9551    0.9985   12.2373 C   0  0  0  0  0  0  0  0  0  0  0  0
    2.2135    1.2751    9.8942 C   0  0  0  0  0  0  0  0  0  0  0  0
    1.0797    0.6388   10.3745 C   0  0  0  0  0  0  0  0  0  0  0  0
    0.5687    0.9744   11.6215 C   0  0  0  0  0  0  0  0  0  0  0  0
    1.1322    2.0134   12.3741 C   0  0  0  0  0  0  0  0  0  0  0  0
    2.2860    2.6377   11.8770 C   0  0  0  0  0  0  0  0  0  0  0  0
    2.8344    2.2595   10.6518 C   0  0  0  0  0  0  0  0  0  0  0  0
    1.8024    3.5504   16.8271 N   0  0  0  0  0  0  0  0  0  0  0  0
   -5.0209   -0.0857   12.4359 C   0  0  1  0  0  0  0  0  0  0  0  0
   -2.9559    3.1368    9.3940 C   0  0  2  0  0  0  0  0  0  0  0  0
   -1.1260    3.4391   11.4323 H   0  0  0  0  0  0  0  0  0  0  0  0
   -3.0651    0.8090   14.1942 H   0  0  0  0  0  0  0  0  0  0  0  0
    2.6995    0.9365    8.6783 F   0  0  0  0  0  0  0  0  0  0  0  0
    0.6105   -0.1354    9.7859 H   0  0  0  0  0  0  0  0  0  0  0  0
   -0.2903    0.4304   11.9868 H   0  0  0  0  0  0  0  0  0  0  0  0
    2.7582    3.4393   12.4279 H   0  0  0  0  0  0  0  0  0  0  0  0
    3.7175    2.7522   10.2736 H   0  0  0  0  0  0  0  0  0  0  0  0
    2.7274    3.8390   16.5278 H   0  0  0  0  0  0  0  0  0  0  0  0
    1.4460    3.8338   17.7391 H   0  0  0  0  0  0  0  0  0  0  0  0
   -6.1861    0.2389   11.8756 F   0  0  0  0  0  0  0  0  0  0  0  0
   -4.5904   -1.2146   11.8767 F   0  0  0  0  0  0  0  0  0  0  0  0
   -5.2377   -0.3223   13.7276 F   0  0  0  0  0  0  0  0  0  0  0  0
   -2.1711    3.8889    9.2871 H   0  0  0  0  0  0  0  0  0  0  0  0
   -3.9134    3.6347    9.2254 H   0  0  0  0  0  0  0  0  0  0  0  0
   -2.8164    2.3888    8.6121 H   0  0  0  0  0  0  0  0  0  0  0  0
  1  2  1  0
  1  6  2  0
  2  3  2  0
  3  4  1  0
  3 10  1  0
  4  5  2  0
  4 16  1  0
  5  6  1  0
  6 19  1  0
  7  8  1  0
  7 12  2  0
  8  9  2  0
  8 21  1  0
  9 10  1  0
  9 22  1  0
 10 11  2  0
 11 12  1  0
 11 23  1  0
 12 20  1  0
 13 14  1  0
 13 18  2  0
 13 24  1  0
 14 15  2  0
 14 25  1  0
 15 16  1  0
 15 26  1  0
 16 17  2  0
 17 18  1  0
 17 27  1  0
 18 28  1  0
 19 29  1  0
 19 30  1  0
 20 31  1  6
 20 32  1  0
 20 33  1  0
 21 34  1  1
 21 35  1  0
 21 36  1  0
M  END
