4jR
     RDKit          3D

 36 38  0  0  1  0  0  0  0  0999 V2000
   -0.4227    3.1099   16.3112 N   0  0  0  0  0  0  0  0  0  0  0  0
   -1.3466    2.7630   15.3980 N   0  0  0  0  0  0  0  0  0  0  0  0
   -0.9855    2.4835   14.1099 C   0  0  0  0  0  0  0  0  0  0  0  0
    0.3853    2.4899   13.7584 C   0  0  0  0  0  0  0  0  0  0  0  0
    1.3132    2.8878   14.6732 N   0  0  0  0  0  0  0  0  0  0  0  0
    0.8674    3.1891   15.9103 C   0  0  0  0  0  0  0  0  0  0  0  0
   -4.2736    1.8586   11.3698 N   0  0  0  0  0  0  0  0  0  0  0  0
   -3.1983    2.6088   11.0197 C   0  0  0  0  0  0  0  0  0  0  0  0
   -2.1225    2.8352   11.8833 C   0  0  0  0  0  0  0  0  0  0  0  0
   -2.1259    2.2651   13.1659 C   0  0  0  0  0  0  0  0  0  0  0  0
   -3.2453    1.5033   13.5329 C   0  0  0  0  0  0  0  0  0  0  0  0
   -4.2828    1.3165   12.6152 C   0  0  0  0  0  0  0  0  0  0  0  0
    2.0985    1.2378    9.9924 C   0  0  0  0  0  0  0  0  0  0  0  0
    0.9309    0.6391   10.4574 C   0  0  0  0  0  0  0  0  0  0  0  0
    0.3799    1.0329   11.6767 C   0  0  0  0  0  0  0  0  0  0  0  0
    0.9615    2.0554   12.4429 C   0  0  0  0  0  0  0  0  0  0  0  0
    2.1393    2.6388   11.9532 C   0  0  0  0  0  0  0  0  0  0  0  0
    2.7000    2.2392   10.7451 C   0  0  0  0  0  0  0  0  0  0  0  0
    1.8110    3.6295   16.8274 N   0  0  0  0  0  0  0  0  0  0  0  0
   -5.4981    0.4883   12.9804 C   0  0  1  0  0  0  0  0  0  0  0  0
   -3.2185    3.1876    9.6169 C   0  0  2  0  0  0  0  0  0  0  0  0
   -1.2880    3.4390   11.5608 H   0  0  0  0  0  0  0  0  0  0  0  0
   -3.2983    1.0440   14.5094 H   0  0  0  0  0  0  0  0  0  0  0  0
    2.5348    0.9310    9.0537 H   0  0  0  0  0  0  0  0  0  0  0  0
   -0.5013    0.5174   12.0297 H   0  0  0  0  0  0  0  0  0  0  0  0
    2.6242    3.4363   12.4964 H   0  0  0  0  0  0  0  0  0  0  0  0
    3.8135    2.8572   10.3008 F   0  0  0  0  0  0  0  0  0  0  0  0
    2.7311    3.9060   16.4948 H   0  0  0  0  0  0  0  0  0  0  0  0
    1.5160    3.8395   17.7803 H   0  0  0  0  0  0  0  0  0  0  0  0
   -5.2124   -0.3783   13.5798 H   0  0  0  0  0  0  0  0  0  0  0  0
   -6.1862    1.0966   13.5675 H   0  0  0  0  0  0  0  0  0  0  0  0
   -6.0257    0.1217   12.0962 H   0  0  0  0  0  0  0  0  0  0  0  0
   -2.4507    3.9508    9.4864 H   0  0  0  0  0  0  0  0  0  0  0  0
   -4.1819    3.6487    9.3995 H   0  0  0  0  0  0  0  0  0  0  0  0
   -3.0421    2.4005    8.8835 H   0  0  0  0  0  0  0  0  0  0  0  0
    0.4640   -0.1542    9.8877 H   0  0  0  0  0  0  0  0  0  0  0  0
  1  2  1  0
  1  6  2  0
  2  3  2  0
  3  4  1  0
  3 10  1  0
  4  5  2  0
  4 16  1  0
  5  6  1  0
  6 19  1  0
  7  8  1  0
  7 12  2  0
  8  9  2  0
  8 21  1  0
  9 10  1  0
  9 22  1  0
 10 11  2  0
 11 12  1  0
 11 23  1  0
 12 20  1  0
 13 14  1  0
 13 18  2  0
 13 24  1  0
 14 15  2  0
 14 36  1  0
 15 16  1  0
 15 25  1  0
 16 17  2  0
 17 18  1  0
 17 26  1  0
 18 27  1  0
 19 28  1  0
 19 29  1  0
 20 30  1  1
 20 31  1  0
 20 32  1  0
 21 33  1  1
 21 34  1  0
 21 35  1  0
M  END
