4jS
     RDKit          3D

 36 38  0  0  1  0  0  0  0  0999 V2000
   -0.4105    3.2664   16.3001 N   0  0  0  0  0  0  0  0  0  0  0  0
   -1.3265    2.9121   15.3841 N   0  0  0  0  0  0  0  0  0  0  0  0
   -0.9596    2.6136   14.1009 C   0  0  0  0  0  0  0  0  0  0  0  0
    0.4176    2.6031   13.7594 C   0  0  0  0  0  0  0  0  0  0  0  0
    1.3361    3.0166   14.6765 N   0  0  0  0  0  0  0  0  0  0  0  0
    0.8807    3.3357   15.9052 C   0  0  0  0  0  0  0  0  0  0  0  0
   -4.2816    1.9423   11.4038 N   0  0  0  0  0  0  0  0  0  0  0  0
   -3.1853    2.6390   11.0102 C   0  0  0  0  0  0  0  0  0  0  0  0
   -2.1027    2.8833   11.8587 C   0  0  0  0  0  0  0  0  0  0  0  0
   -2.1109    2.3812   13.1694 C   0  0  0  0  0  0  0  0  0  0  0  0
   -3.2525    1.6761   13.5797 C   0  0  0  0  0  0  0  0  0  0  0  0
   -4.3001    1.4712   12.6770 C   0  0  0  0  0  0  0  0  0  0  0  0
    2.1198    1.3190    9.9943 C   0  0  0  0  0  0  0  0  0  0  0  0
    0.9023    0.8027   10.4269 C   0  0  0  0  0  0  0  0  0  0  0  0
    0.3815    1.1738   11.6611 C   0  0  0  0  0  0  0  0  0  0  0  0
    1.0126    2.1392   12.4584 C   0  0  0  0  0  0  0  0  0  0  0  0
    2.2461    2.6386   12.0051 C   0  0  0  0  0  0  0  0  0  0  0  0
    2.8004    2.2336   10.7916 C   0  0  0  0  0  0  0  0  0  0  0  0
    1.8135    3.7797   16.8275 N   0  0  0  0  0  0  0  0  0  0  0  0
   -5.5349    0.7008   13.0941 C   0  0  1  0  0  0  0  0  0  0  0  0
   -3.1872    3.1405    9.5784 C   0  0  2  0  0  0  0  0  0  0  0  0
   -1.2519    3.4388   11.4979 H   0  0  0  0  0  0  0  0  0  0  0  0
   -3.3156    1.2727   14.5794 H   0  0  0  0  0  0  0  0  0  0  0  0
    2.5194    1.0249    9.0353 H   0  0  0  0  0  0  0  0  0  0  0  0
    0.1959   -0.0245    9.6271 F   0  0  0  0  0  0  0  0  0  0  0  0
   -0.5435    0.7117   11.9726 H   0  0  0  0  0  0  0  0  0  0  0  0
    2.7827    3.3839   12.5739 H   0  0  0  0  0  0  0  0  0  0  0  0
    3.7419    2.6478   10.4626 H   0  0  0  0  0  0  0  0  0  0  0  0
    2.7425    4.0405   16.5021 H   0  0  0  0  0  0  0  0  0  0  0  0
    1.5203    3.9607   17.7862 H   0  0  0  0  0  0  0  0  0  0  0  0
   -5.2679   -0.1526   13.7224 H   0  0  0  0  0  0  0  0  0  0  0  0
   -6.1860    1.3596   13.6705 H   0  0  0  0  0  0  0  0  0  0  0  0
   -6.0923    0.3207   12.2323 H   0  0  0  0  0  0  0  0  0  0  0  0
   -2.3798    3.8531    9.4042 H   0  0  0  0  0  0  0  0  0  0  0  0
   -4.1274    3.6410    9.3411 H   0  0  0  0  0  0  0  0  0  0  0  0
   -3.0527    2.3062    8.8886 H   0  0  0  0  0  0  0  0  0  0  0  0
  1  2  1  0
  1  6  2  0
  2  3  2  0
  3  4  1  0
  3 10  1  0
  4  5  2  0
  4 16  1  0
  5  6  1  0
  6 19  1  0
  7  8  1  0
  7 12  2  0
  8  9  2  0
  8 21  1  0
  9 10  1  0
  9 22  1  0
 10 11  2  0
 11 12  1  0
 11 23  1  0
 12 20  1  0
 13 14  1  0
 13 18  2  0
 13 24  1  0
 14 15  2  0
 14 25  1  0
 15 16  1  0
 15 26  1  0
 16 17  2  0
 17 18  1  0
 17 27  1  0
 18 28  1  0
 19 29  1  0
 19 30  1  0
 20 31  1  1
 20 32  1  0
 20 33  1  0
 21 34  1  1
 21 35  1  0
 21 36  1  0
M  END
