4i
     RDKit          3D

 36 38  0  0  1  0  0  0  0  0999 V2000
   -0.4886    3.1835   16.3511 N   0  0  0  0  0  0  0  0  0  0  0  0
   -1.4228    2.8286   15.4506 N   0  0  0  0  0  0  0  0  0  0  0  0
   -1.0737    2.5365   14.1614 C   0  0  0  0  0  0  0  0  0  0  0  0
    0.2928    2.5421   13.7960 C   0  0  0  0  0  0  0  0  0  0  0  0
    1.2277    2.9469   14.6985 N   0  0  0  0  0  0  0  0  0  0  0  0
    0.7966    3.2623   15.9330 C   0  0  0  0  0  0  0  0  0  0  0  0
   -4.3170    1.8169   11.4048 N   0  0  0  0  0  0  0  0  0  0  0  0
   -3.2734    2.6185   11.0718 C   0  0  0  0  0  0  0  0  0  0  0  0
   -2.2275    2.8966   11.9523 C   0  0  0  0  0  0  0  0  0  0  0  0
   -2.2167    2.3103   13.2267 C   0  0  0  0  0  0  0  0  0  0  0  0
   -3.3042    1.4974   13.5821 C   0  0  0  0  0  0  0  0  0  0  0  0
   -4.3216    1.2713   12.6502 C   0  0  0  0  0  0  0  0  0  0  0  0
    1.9803    1.3197   10.0105 C   0  0  0  0  0  0  0  0  0  0  0  0
    0.7638    0.7909   10.4317 C   0  0  0  0  0  0  0  0  0  0  0  0
    0.2368    1.1492   11.6691 C   0  0  0  0  0  0  0  0  0  0  0  0
    0.8670    2.1083   12.4793 C   0  0  0  0  0  0  0  0  0  0  0  0
    2.0850    2.6388   12.0234 C   0  0  0  0  0  0  0  0  0  0  0  0
    2.6426    2.2393   10.8145 C   0  0  0  0  0  0  0  0  0  0  0  0
    1.7544    3.7077   16.8274 N   0  0  0  0  0  0  0  0  0  0  0  0
   -5.4931    0.3744   12.9918 C   0  0  1  0  0  0  0  0  0  0  0  0
   -3.2713    3.1730    9.6598 C   0  0  2  0  0  0  0  0  0  0  0  0
   -1.4128    3.5321   11.6409 H   0  0  0  0  0  0  0  0  0  0  0  0
   -3.3451    1.0337   14.5553 H   0  0  0  0  0  0  0  0  0  0  0  0
    2.3939    1.0323    9.0553 H   0  0  0  0  0  0  0  0  0  0  0  0
    0.0723   -0.0475    9.6293 F   0  0  0  0  0  0  0  0  0  0  0  0
   -0.6814    0.6723   11.9780 H   0  0  0  0  0  0  0  0  0  0  0  0
    2.6117    3.3866   12.5980 H   0  0  0  0  0  0  0  0  0  0  0  0
    3.8141    2.7733   10.4259 F   0  0  0  0  0  0  0  0  0  0  0  0
    2.6827    3.9436   16.4884 H   0  0  0  0  0  0  0  0  0  0  0  0
    1.4870    3.8680   17.7979 H   0  0  0  0  0  0  0  0  0  0  0  0
   -5.1520   -0.5152   13.5274 H   0  0  0  0  0  0  0  0  0  0  0  0
   -6.1849    0.9101   13.6404 H   0  0  0  0  0  0  0  0  0  0  0  0
   -6.0323    0.0374   12.1038 H   0  0  0  0  0  0  0  0  0  0  0  0
   -2.4292    3.8451    9.4921 H   0  0  0  0  0  0  0  0  0  0  0  0
   -4.1861    3.7322    9.4581 H   0  0  0  0  0  0  0  0  0  0  0  0
   -3.1998    2.3601    8.9375 H   0  0  0  0  0  0  0  0  0  0  0  0
  1  2  1  0
  1  6  2  0
  2  3  2  0
  3  4  1  0
  3 10  1  0
  4  5  2  0
  4 16  1  0
  5  6  1  0
  6 19  1  0
  7  8  1  0
  7 12  2  0
  8  9  2  0
  8 21  1  0
  9 10  1  0
  9 22  1  0
 10 11  2  0
 11 12  1  0
 11 23  1  0
 12 20  1  0
 13 14  1  0
 13 18  2  0
 13 24  1  0
 14 15  2  0
 14 25  1  0
 15 16  1  0
 15 26  1  0
 16 17  2  0
 17 18  1  0
 17 27  1  0
 18 28  1  0
 19 29  1  0
 19 30  1  0
 20 31  1  1
 20 32  1  0
 20 33  1  0
 21 34  1  1
 21 35  1  0
 21 36  1  0
M  END
