CHEMBL3265013 flip
     RDKit          3D

 51 54  0  0  1  0  0  0  0  0999 V2000
   -4.6759   -2.1110   15.8254 C   0  0  2  0  0  0  0  0  0  0  0  0
   -3.9261   -1.7937   14.7111 O   0  0  0  0  0  0  0  0  0  0  0  0
   -2.5599   -1.8024   14.9057 C   0  0  0  0  0  0  0  0  0  0  0  0
   -2.0378   -2.1157   16.1550 C   0  0  0  0  0  0  0  0  0  0  0  0
   -0.6619   -2.1244   16.3509 C   0  0  0  0  0  0  0  0  0  0  0  0
    0.1920   -1.8199   15.2975 C   0  0  0  0  0  0  0  0  0  0  0  0
    1.6374   -1.8290   15.5033 N   0  0  0  0  0  0  0  0  0  0  0  0
    2.4532   -0.7270   15.0017 C   0  0  0  0  0  0  0  0  0  0  0  0
    1.8852    0.1170   14.0906 N   0  0  0  0  0  0  0  0  0  0  0  0
    2.6193    1.1516   13.6057 C   0  0  0  0  0  0  0  0  0  0  0  0
    3.9327    1.3819   14.0057 C   0  0  0  0  0  0  0  0  0  0  0  0
    4.4870    0.5250   14.9208 N   0  0  0  0  0  0  0  0  0  0  0  0
    5.7239    0.4714   15.5092 C   0  0  0  0  0  0  0  0  0  0  0  0
    5.6915   -0.6338   16.3593 C   0  0  0  0  0  0  0  0  0  0  0  0
    4.5344   -1.2684   16.3445 N   0  0  0  0  0  0  0  0  0  0  0  0
    3.7746   -0.5631   15.4572 C   0  0  0  0  0  0  0  0  0  0  0  0
    1.9567    2.0539   12.6072 C   0  0  0  0  0  0  0  0  0  0  0  0
    0.6221    1.8583   12.2722 C   0  0  0  0  0  0  0  0  0  0  0  0
    0.0081    2.6943   11.3472 C   0  0  0  0  0  0  0  0  0  0  0  0
    0.7287    3.7259   10.7571 C   0  0  0  0  0  0  0  0  0  0  0  0
    0.0661    4.6281    9.7586 C   0  0  0  0  0  0  0  0  0  0  0  0
    0.6287    5.5120    9.1191 O   0  0  0  0  0  0  0  0  0  0  0  0
   -1.2345    4.3613    9.6358 N   0  0  0  0  0  0  0  0  0  0  0  0
    2.0633    3.9214   11.0921 C   0  0  0  0  0  0  0  0  0  0  0  0
    2.8411    5.0348   10.4552 C   0  0  2  0  0  0  0  0  0  0  0  0
    2.6773    3.0854   12.0172 C   0  0  0  0  0  0  0  0  0  0  0  0
   -0.3301   -1.5065   14.0481 C   0  0  0  0  0  0  0  0  0  0  0  0
   -1.7060   -1.4978   13.8522 C   0  0  0  0  0  0  0  0  0  0  0  0
   -2.2244   -1.1867   12.6117 O   0  0  0  0  0  0  0  0  0  0  0  0
   -1.2850   -0.9015   11.6419 C   0  0  2  0  0  0  0  0  0  0  0  0
   -5.7355   -2.0773   15.5720 H   0  0  0  0  0  0  0  0  0  0  0  0
   -4.4690   -1.3931   16.6191 H   0  0  0  0  0  0  0  0  0  0  0  0
   -4.4153   -3.1134   16.1652 H   0  0  0  0  0  0  0  0  0  0  0  0
   -2.7026   -2.3528   16.9752 H   0  0  0  0  0  0  0  0  0  0  0  0
   -0.2555   -2.3684   17.3236 H   0  0  0  0  0  0  0  0  0  0  0  0
    2.0836   -2.6167   16.0048 H   0  0  0  0  0  0  0  0  0  0  0  0
    4.5480    2.1923   13.6436 H   0  0  0  0  0  0  0  0  0  0  0  0
    6.5032    1.1877   15.2931 H   0  0  0  0  0  0  0  0  0  0  0  0
    6.5144   -0.9672   16.9836 H   0  0  0  0  0  0  0  0  0  0  0  0
    0.0610    1.0552   12.7317 H   0  0  0  0  0  0  0  0  0  0  0  0
   -1.0310    2.5421   11.0864 H   0  0  0  0  0  0  0  0  0  0  0  0
   -1.8766    4.8427    9.0226 H   0  0  0  0  0  0  0  0  0  0  0  0
   -1.7366    3.6453   10.1411 H   0  0  0  0  0  0  0  0  0  0  0  0
    3.8613    5.0310   10.8389 H   0  0  0  0  0  0  0  0  0  0  0  0
    2.3683    5.9886   10.6894 H   0  0  0  0  0  0  0  0  0  0  0  0
    2.8588    4.8937    9.3745 H   0  0  0  0  0  0  0  0  0  0  0  0
    3.7163    3.2377   12.2780 H   0  0  0  0  0  0  0  0  0  0  0  0
    0.3347   -1.2694   13.2279 H   0  0  0  0  0  0  0  0  0  0  0  0
   -1.7898   -0.6698   10.7040 H   0  0  0  0  0  0  0  0  0  0  0  0
   -0.6347   -1.7648   11.5009 H   0  0  0  0  0  0  0  0  0  0  0  0
   -0.6884   -0.0446   11.9547 H   0  0  0  0  0  0  0  0  0  0  0  0
  1  2  1  0
  1 31  1  6
  1 32  1  0
  1 33  1  0
  2  3  1  0
  3  4  2  0
  3 28  1  0
  4  5  1  0
  4 34  1  0
  5  6  2  0
  5 35  1  0
  6  7  1  0
  6 27  1  0
  7  8  1  0
  7 36  1  0
  8  9  2  0
  8 16  1  0
  9 10  1  0
 10 11  2  0
 10 17  1  0
 11 12  1  0
 11 37  1  0
 12 13  1  0
 12 16  1  0
 13 14  2  0
 13 38  1  0
 14 15  1  0
 14 39  1  0
 15 16  2  0
 17 18  2  0
 17 26  1  0
 18 19  1  0
 18 40  1  0
 19 20  2  0
 19 41  1  0
 20 21  1  0
 20 24  1  0
 21 22  2  0
 21 23  1  0
 23 42  1  0
 23 43  1  0
 24 25  1  0
 24 26  2  0
 25 44  1  1
 25 45  1  0
 25 46  1  0
 26 47  1  0
 27 28  2  0
 27 48  1  0
 28 29  1  0
 29 30  1  0
 30 49  1  6
 30 50  1  0
 30 51  1  0
M  END
