CHEMBL3264995
     RDKit          3D

 60 64  0  0  1  0  0  0  0  0999 V2000
   -4.2785   -3.0684   13.6701 C   0  0  2  0  0  0  0  0  0  0  0  0
   -3.8798   -2.3357   14.8183 O   0  0  0  0  0  0  0  0  0  0  0  0
   -2.5298   -2.0938   14.9097 C   0  0  0  0  0  0  0  0  0  0  0  0
   -1.7499   -2.8703   15.7552 C   0  0  0  0  0  0  0  0  0  0  0  0
   -0.3883   -2.6219   15.8784 C   0  0  0  0  0  0  0  0  0  0  0  0
    0.2229   -1.5899   15.1610 C   0  0  0  0  0  0  0  0  0  0  0  0
    1.6112   -1.3794   15.3850 N   0  0  0  0  0  0  0  0  0  0  0  0
    2.5341   -0.4473   14.8381 C   0  0  0  0  0  0  0  0  0  0  0  0
    2.1615    0.4017   13.8320 N   0  0  0  0  0  0  0  0  0  0  0  0
    3.1061    1.2442   13.3049 C   0  0  0  0  0  0  0  0  0  0  0  0
    4.4122    1.2706   13.7649 C   0  0  0  0  0  0  0  0  0  0  0  0
    4.7508    0.4723   14.8107 N   0  0  0  0  0  0  0  0  0  0  0  0
    5.9110    0.3539   15.5210 C   0  0  0  0  0  0  0  0  0  0  0  0
    5.6191   -0.5808   16.5459 C   0  0  0  0  0  0  0  0  0  0  0  0
    4.4018   -1.0861   16.3999 N   0  0  0  0  0  0  0  0  0  0  0  0
    3.8448   -0.4107   15.3791 C   0  0  0  0  0  0  0  0  0  0  0  0
    2.6425    2.1635   12.2224 C   0  0  0  0  0  0  0  0  0  0  0  0
    3.5450    2.6582   11.2582 C   0  0  0  0  0  0  0  0  0  0  0  0
    3.0953    3.4793   10.2242 C   0  0  0  0  0  0  0  0  0  0  0  0
    1.7496    3.8257   10.1428 C   0  0  0  0  0  0  0  0  0  0  0  0
    0.8497    3.3809   11.1187 C   0  0  0  0  0  0  0  0  0  0  0  0
    1.2977    2.5523   12.1514 C   0  0  0  0  0  0  0  0  0  0  0  0
   -0.5939    3.8110   11.0531 C   0  0  0  0  0  0  0  0  0  0  0  0
   -1.1385    3.9954    9.9643 O   0  0  0  0  0  0  0  0  0  0  0  0
   -1.1827    4.0419   12.2723 N   0  0  0  0  0  0  0  0  0  0  0  0
   -2.4937    4.6144   12.4115 C   0  0  0  0  0  0  0  0  0  0  0  0
   -3.4837    4.4330   11.4320 C   0  0  0  0  0  0  0  0  0  0  0  0
   -4.7343    5.0134   11.5932 C   0  0  0  0  0  0  0  0  0  0  0  0
   -5.0217    5.7784   12.7318 C   0  0  0  0  0  0  0  0  0  0  0  0
   -4.0358    5.9540   13.7160 C   0  0  0  0  0  0  0  0  0  0  0  0
   -2.7750    5.3698   13.5570 C   0  0  0  0  0  0  0  0  0  0  0  0
   -6.3811    6.4009   12.8957 C   0  0  0  0  0  0  0  0  0  0  0  0
   -7.2147    6.1964   11.9817 O   0  0  0  0  0  0  0  0  0  0  0  0
   -6.5795    7.0748   13.9338 O   0  0  0  0  0  0  0  0  0  0  0  0
   -0.5592   -0.8003   14.2862 C   0  0  0  0  0  0  0  0  0  0  0  0
   -1.9478   -1.0590   14.1659 C   0  0  0  0  0  0  0  0  0  0  0  0
   -2.7571   -0.3019   13.3342 O   0  0  0  0  0  0  0  0  0  0  0  0
   -2.2302    0.6876   12.4692 C   0  0  2  0  0  0  0  0  0  0  0  0
   -5.3587   -3.2123   13.6988 H   0  0  0  0  0  0  0  0  0  0  0  0
   -3.8109   -4.0534   13.6442 H   0  0  0  0  0  0  0  0  0  0  0  0
   -4.0394   -2.5377   12.7474 H   0  0  0  0  0  0  0  0  0  0  0  0
   -2.2052   -3.6649   16.3298 H   0  0  0  0  0  0  0  0  0  0  0  0
    0.2048   -3.2273   16.5509 H   0  0  0  0  0  0  0  0  0  0  0  0
    2.0128   -1.9896   16.0866 H   0  0  0  0  0  0  0  0  0  0  0  0
    5.1735    1.9400   13.3909 H   0  0  0  0  0  0  0  0  0  0  0  0
    6.7916    0.9429   15.3113 H   0  0  0  0  0  0  0  0  0  0  0  0
    6.2689   -0.8789   17.3536 H   0  0  0  0  0  0  0  0  0  0  0  0
    4.5885    2.3826   11.3010 H   0  0  0  0  0  0  0  0  0  0  0  0
    3.7927    3.8456    9.4825 H   0  0  0  0  0  0  0  0  0  0  0  0
    1.4056    4.4670    9.3404 H   0  0  0  0  0  0  0  0  0  0  0  0
    0.6029    2.2017   12.8994 H   0  0  0  0  0  0  0  0  0  0  0  0
   -0.6237    3.9545   13.1111 H   0  0  0  0  0  0  0  0  0  0  0  0
   -3.2953    3.8399   10.5592 H   0  0  0  0  0  0  0  0  0  0  0  0
   -5.4884    4.8704   10.8347 H   0  0  0  0  0  0  0  0  0  0  0  0
   -4.2509    6.5449   14.6007 H   0  0  0  0  0  0  0  0  0  0  0  0
   -2.0145    5.5122   14.3155 H   0  0  0  0  0  0  0  0  0  0  0  0
   -0.1202    0.0000   13.7256 H   0  0  0  0  0  0  0  0  0  0  0  0
   -3.0542    1.1235   11.9011 H   0  0  0  0  0  0  0  0  0  0  0  0
   -1.5213    0.2666   11.7560 H   0  0  0  0  0  0  0  0  0  0  0  0
   -1.7665    1.4838   13.0469 H   0  0  0  0  0  0  0  0  0  0  0  0
  1  2  1  0
  1 39  1  1
  1 40  1  0
  1 41  1  0
  2  3  1  0
  3  4  2  0
  3 36  1  0
  4  5  1  0
  4 42  1  0
  5  6  2  0
  5 43  1  0
  6  7  1  0
  6 35  1  0
  7  8  1  0
  7 44  1  0
  8  9  2  0
  8 16  1  0
  9 10  1  0
 10 11  2  0
 10 17  1  0
 11 12  1  0
 11 45  1  0
 12 13  1  0
 12 16  1  0
 13 14  2  0
 13 46  1  0
 14 15  1  0
 14 47  1  0
 15 16  2  0
 17 18  2  0
 17 22  1  0
 18 19  1  0
 18 48  1  0
 19 20  2  0
 19 49  1  0
 20 21  1  0
 20 50  1  0
 21 22  2  0
 21 23  1  0
 22 51  1  0
 23 24  2  0
 23 25  1  0
 25 26  1  0
 25 52  1  0
 26 27  2  0
 26 31  1  0
 27 28  1  0
 27 53  1  0
 28 29  2  0
 28 54  1  0
 29 30  1  0
 29 32  1  0
 30 31  2  0
 30 55  1  0
 31 56  1  0
 32 33  2  0
 32 34  1  0
 35 36  2  0
 35 57  1  0
 36 37  1  0
 37 38  1  0
 38 58  1  6
 38 59  1  0
 38 60  1  0
M  CHG  1  34  -1
M  END
