CHEMBL3265014 flip
     RDKit          3D

 52 55  0  0  1  0  0  0  0  0999 V2000
   -4.6839   -2.1048   15.7915 C   0  0  2  0  0  0  0  0  0  0  0  0
   -3.9271   -1.7639   14.6890 O   0  0  0  0  0  0  0  0  0  0  0  0
   -2.5620   -1.7825   14.8902 C   0  0  0  0  0  0  0  0  0  0  0  0
   -2.0476   -2.1274   16.1344 C   0  0  0  0  0  0  0  0  0  0  0  0
   -0.6728   -2.1461   16.3371 C   0  0  0  0  0  0  0  0  0  0  0  0
    0.1877   -1.8199   15.2955 C   0  0  0  0  0  0  0  0  0  0  0  0
    1.6319   -1.8395   15.5084 N   0  0  0  0  0  0  0  0  0  0  0  0
    2.4577   -0.7416   15.0143 C   0  0  0  0  0  0  0  0  0  0  0  0
    1.9000    0.1091   14.1030 N   0  0  0  0  0  0  0  0  0  0  0  0
    2.6435    1.1401   13.6248 C   0  0  0  0  0  0  0  0  0  0  0  0
    3.9564    1.3603   14.0321 C   0  0  0  0  0  0  0  0  0  0  0  0
    4.5004    0.4969   14.9473 N   0  0  0  0  0  0  0  0  0  0  0  0
    5.7339    0.4330   15.5415 C   0  0  0  0  0  0  0  0  0  0  0  0
    5.6898   -0.6744   16.3881 C   0  0  0  0  0  0  0  0  0  0  0  0
    4.5285   -1.3011   16.3656 N   0  0  0  0  0  0  0  0  0  0  0  0
    3.7779   -0.5880   15.4767 C   0  0  0  0  0  0  0  0  0  0  0  0
    1.9919    2.0499   12.6259 C   0  0  0  0  0  0  0  0  0  0  0  0
    2.6822    3.1523   12.1362 C   0  0  0  0  0  0  0  0  0  0  0  0
    2.0785    3.9953   11.2107 C   0  0  0  0  0  0  0  0  0  0  0  0
    0.7845    3.7358   10.7748 C   0  0  0  0  0  0  0  0  0  0  0  0
    0.1330    4.6455    9.7759 C   0  0  0  0  0  0  0  0  0  0  0  0
    0.6512    5.6424    9.2815 O   0  0  0  0  0  0  0  0  0  0  0  0
   -1.1026    4.2460    9.4734 N   0  0  0  0  0  0  0  0  0  0  0  0
    0.0943    2.6333   11.2645 C   0  0  0  0  0  0  0  0  0  0  0  0
   -1.1906    2.3757   10.8318 O   0  0  0  0  0  0  0  0  0  0  0  0
   -2.1275    2.2380   11.8356 C   0  0  2  0  0  0  0  0  0  0  0  0
    0.6980    1.7904   12.1901 C   0  0  0  0  0  0  0  0  0  0  0  0
   -0.3267   -1.4750   14.0513 C   0  0  0  0  0  0  0  0  0  0  0  0
   -1.7016   -1.4563   13.8487 C   0  0  0  0  0  0  0  0  0  0  0  0
   -2.2123   -1.1138   12.6133 O   0  0  0  0  0  0  0  0  0  0  0  0
   -1.2668   -0.8093   11.6553 C   0  0  2  0  0  0  0  0  0  0  0  0
   -5.7420   -2.0609   15.5336 H   0  0  0  0  0  0  0  0  0  0  0  0
   -4.4785   -1.4067   16.6031 H   0  0  0  0  0  0  0  0  0  0  0  0
   -4.4288   -3.1160   16.1087 H   0  0  0  0  0  0  0  0  0  0  0  0
   -2.7175   -2.3814   16.9453 H   0  0  0  0  0  0  0  0  0  0  0  0
   -0.2723   -2.4147   17.3058 H   0  0  0  0  0  0  0  0  0  0  0  0
    2.0704   -2.6317   16.0097 H   0  0  0  0  0  0  0  0  0  0  0  0
    4.5789    2.1676   13.6755 H   0  0  0  0  0  0  0  0  0  0  0  0
    6.5191    1.1447   15.3315 H   0  0  0  0  0  0  0  0  0  0  0  0
    6.5074   -1.0154   17.0154 H   0  0  0  0  0  0  0  0  0  0  0  0
    3.6896    3.3543   12.4755 H   0  0  0  0  0  0  0  0  0  0  0  0
    2.6159    4.8535   10.8294 H   0  0  0  0  0  0  0  0  0  0  0  0
   -1.7256    4.7062    8.8252 H   0  0  0  0  0  0  0  0  0  0  0  0
   -1.5666    3.4343    9.8555 H   0  0  0  0  0  0  0  0  0  0  0  0
   -3.1045    2.0378   11.3957 H   0  0  0  0  0  0  0  0  0  0  0  0
   -2.1731    3.1577   12.4187 H   0  0  0  0  0  0  0  0  0  0  0  0
   -1.8449    1.4096   12.4852 H   0  0  0  0  0  0  0  0  0  0  0  0
    0.1605    0.9321   12.5713 H   0  0  0  0  0  0  0  0  0  0  0  0
    0.3432   -1.2210   13.2404 H   0  0  0  0  0  0  0  0  0  0  0  0
   -1.7659   -0.5534   10.7207 H   0  0  0  0  0  0  0  0  0  0  0  0
   -0.6191   -1.6715   11.4971 H   0  0  0  0  0  0  0  0  0  0  0  0
   -0.6687    0.0377   11.9915 H   0  0  0  0  0  0  0  0  0  0  0  0
  1  2  1  0
  1 32  1  6
  1 33  1  0
  1 34  1  0
  2  3  1  0
  3  4  2  0
  3 29  1  0
  4  5  1  0
  4 35  1  0
  5  6  2  0
  5 36  1  0
  6  7  1  0
  6 28  1  0
  7  8  1  0
  7 37  1  0
  8  9  2  0
  8 16  1  0
  9 10  1  0
 10 11  2  0
 10 17  1  0
 11 12  1  0
 11 38  1  0
 12 13  1  0
 12 16  1  0
 13 14  2  0
 13 39  1  0
 14 15  1  0
 14 40  1  0
 15 16  2  0
 17 18  2  0
 17 27  1  0
 18 19  1  0
 18 41  1  0
 19 20  2  0
 19 42  1  0
 20 21  1  0
 20 24  1  0
 21 22  2  0
 21 23  1  0
 23 43  1  0
 23 44  1  0
 24 25  1  0
 24 27  2  0
 25 26  1  0
 26 45  1  6
 26 46  1  0
 26 47  1  0
 27 48  1  0
 28 29  2  0
 28 49  1  0
 29 30  1  0
 30 31  1  0
 31 50  1  6
 31 51  1  0
 31 52  1  0
M  END
