redocked CHEMBL3265000
     RDKit          3D

 68 72  0  0  1  0  0  0  0  0999 V2000
   -4.2888   -3.0799   13.6145 C   0  0  2  0  0  0  0  0  0  0  0  0
   -3.8989   -2.3770   14.7932 O   0  0  0  0  0  0  0  0  0  0  0  0
   -2.5485   -2.1225   14.9023 C   0  0  0  0  0  0  0  0  0  0  0  0
   -1.7910   -2.8291   15.8452 C   0  0  0  0  0  0  0  0  0  0  0  0
   -0.4249   -2.5651   15.9873 C   0  0  0  0  0  0  0  0  0  0  0  0
    0.2005   -1.5776   15.2120 C   0  0  0  0  0  0  0  0  0  0  0  0
    1.5750   -1.3312   15.4276 N   0  0  0  0  0  0  0  0  0  0  0  0
    2.5304   -0.4593   14.8495 C   0  0  0  0  0  0  0  0  0  0  0  0
    2.1792    0.4027   13.8538 N   0  0  0  0  0  0  0  0  0  0  0  0
    3.0912    1.2697   13.3239 C   0  0  0  0  0  0  0  0  0  0  0  0
    4.3984    1.3233   13.7881 C   0  0  0  0  0  0  0  0  0  0  0  0
    4.7529    0.4783   14.7883 N   0  0  0  0  0  0  0  0  0  0  0  0
    5.9142    0.3796   15.4954 C   0  0  0  0  0  0  0  0  0  0  0  0
    5.6473   -0.5705   16.4673 C   0  0  0  0  0  0  0  0  0  0  0  0
    4.4681   -1.1534   16.3385 N   0  0  0  0  0  0  0  0  0  0  0  0
    3.8564   -0.4547   15.3452 C   0  0  0  0  0  0  0  0  0  0  0  0
    2.6404    2.1748   12.2350 C   0  0  0  0  0  0  0  0  0  0  0  0
    3.5524    2.6706   11.2852 C   0  0  0  0  0  0  0  0  0  0  0  0
    3.1342    3.5057   10.2517 C   0  0  0  0  0  0  0  0  0  0  0  0
    1.7909    3.8509   10.1439 C   0  0  0  0  0  0  0  0  0  0  0  0
    0.8658    3.3750   11.0811 C   0  0  0  0  0  0  0  0  0  0  0  0
    1.2958    2.5489   12.1271 C   0  0  0  0  0  0  0  0  0  0  0  0
   -0.5829    3.7115   10.9199 C   0  0  0  0  0  0  0  0  0  0  0  0
   -1.1044    3.6098    9.8060 O   0  0  0  0  0  0  0  0  0  0  0  0
   -1.1963    4.1344   12.0500 N   0  0  0  0  0  0  0  0  0  0  0  0
   -2.5406    4.5082   12.2049 C   0  0  0  0  0  0  0  0  0  0  0  0
   -3.5500    4.0758   11.3390 C   0  0  0  0  0  0  0  0  0  0  0  0
   -4.8467    4.5449   11.4875 C   0  0  0  0  0  0  0  0  0  0  0  0
   -5.1760    5.4366   12.5204 C   0  0  0  0  0  0  0  0  0  0  0  0
   -4.1707    5.8036   13.4300 C   0  0  0  0  0  0  0  0  0  0  0  0
   -2.8614    5.3542   13.2668 C   0  0  0  0  0  0  0  0  0  0  0  0
   -6.5868    5.9887   12.6815 C   0  0  0  0  0  0  0  0  0  0  0  0
   -6.9127    6.4383   13.7815 O   0  0  0  0  0  0  0  0  0  0  0  0
   -7.3412    5.9507   11.6051 N   0  0  0  0  0  0  0  0  0  0  0  0
   -8.7283    6.6959   11.5519 S   0  0  2  0  0  0  0  0  0  0  0  0
   -9.4109    6.4700   10.2713 O   0  0  0  0  0  0  0  0  0  0  0  0
   -8.6568    8.0979   11.9985 O   0  0  0  0  0  0  0  0  0  0  0  0
   -9.8183    5.7968   12.8208 C   0  0  2  0  0  0  0  0  0  0  0  0
   -0.5734   -0.8726   14.2760 C   0  0  0  0  0  0  0  0  0  0  0  0
   -1.9457   -1.1275   14.1119 C   0  0  0  0  0  0  0  0  0  0  0  0
   -2.7593   -0.4347   13.2225 O   0  0  0  0  0  0  0  0  0  0  0  0
   -2.2125    0.5879   12.3877 C   0  0  2  0  0  0  0  0  0  0  0  0
   -5.3781   -3.2327   13.6222 H   0  0  0  0  0  0  0  0  0  0  0  0
   -3.7818   -4.0556   13.5849 H   0  0  0  0  0  0  0  0  0  0  0  0
   -4.0071   -2.4932   12.7277 H   0  0  0  0  0  0  0  0  0  0  0  0
   -2.2271   -3.5226   16.4187 H   0  0  0  0  0  0  0  0  0  0  0  0
    0.1027   -3.0772   16.6652 H   0  0  0  0  0  0  0  0  0  0  0  0
    2.1203   -1.8943   16.1994 H   0  0  0  0  0  0  0  0  0  0  0  0
    5.1498    2.0061   13.4340 H   0  0  0  0  0  0  0  0  0  0  0  0
    6.7724    1.0100   15.3170 H   0  0  0  0  0  0  0  0  0  0  0  0
    6.3218   -0.7932   17.2777 H   0  0  0  0  0  0  0  0  0  0  0  0
    4.5968    2.4018   11.3257 H   0  0  0  0  0  0  0  0  0  0  0  0
    3.8482    3.8780    9.5320 H   0  0  0  0  0  0  0  0  0  0  0  0
    1.4750    4.4872    9.3280 H   0  0  0  0  0  0  0  0  0  0  0  0
    0.5801    2.1728   12.8441 H   0  0  0  0  0  0  0  0  0  0  0  0
   -0.6269    4.2150   12.9877 H   0  0  0  0  0  0  0  0  0  0  0  0
   -3.3564    3.3884   10.5303 H   0  0  0  0  0  0  0  0  0  0  0  0
   -5.5952    4.2122   10.7821 H   0  0  0  0  0  0  0  0  0  0  0  0
   -4.3899    6.4698   14.2531 H   0  0  0  0  0  0  0  0  0  0  0  0
   -2.0994    5.6856   13.9585 H   0  0  0  0  0  0  0  0  0  0  0  0
   -9.9103    4.7373   12.5399 H   0  0  0  0  0  0  0  0  0  0  0  0
  -10.8163    6.2591   12.8398 H   0  0  0  0  0  0  0  0  0  0  0  0
   -9.3597    5.8734   13.8177 H   0  0  0  0  0  0  0  0  0  0  0  0
   -0.1266   -0.1669   13.7260 H   0  0  0  0  0  0  0  0  0  0  0  0
   -3.0091    1.0137   11.7599 H   0  0  0  0  0  0  0  0  0  0  0  0
   -1.4300    0.1576   11.7454 H   0  0  0  0  0  0  0  0  0  0  0  0
   -1.7774    1.3798   13.0151 H   0  0  0  0  0  0  0  0  0  0  0  0
   -6.9871    5.3847   10.7309 H   0  0  0  0  0  0  0  0  0  0  0  0
  1  2  1  0
  1 43  1  1
  1 44  1  0
  1 45  1  0
  2  3  1  0
  3  4  2  0
  3 40  1  0
  4  5  1  0
  4 46  1  0
  5  6  2  0
  5 47  1  0
  6  7  1  0
  6 39  1  0
  7  8  1  0
  7 48  1  0
  8  9  2  0
  8 16  1  0
  9 10  1  0
 10 11  2  0
 10 17  1  0
 11 12  1  0
 11 49  1  0
 12 13  1  0
 12 16  1  0
 13 14  2  0
 13 50  1  0
 14 15  1  0
 14 51  1  0
 15 16  2  0
 17 18  2  0
 17 22  1  0
 18 19  1  0
 18 52  1  0
 19 20  2  0
 19 53  1  0
 20 21  1  0
 20 54  1  0
 21 22  2  0
 21 23  1  0
 22 55  1  0
 23 24  2  0
 23 25  1  0
 25 26  1  0
 25 56  1  0
 26 27  2  0
 26 31  1  0
 27 28  1  0
 27 57  1  0
 28 29  2  0
 28 58  1  0
 29 30  1  0
 29 32  1  0
 30 31  2  0
 30 59  1  0
 31 60  1  0
 32 33  2  0
 32 34  1  0
 35 34  1  6
 34 68  1  0
 35 36  2  0
 35 37  2  0
 35 38  1  0
 38 61  1  6
 38 62  1  0
 38 63  1  0
 39 40  2  0
 39 64  1  0
 40 41  1  0
 41 42  1  0
 42 65  1  6
 42 66  1  0
 42 67  1  0
M  END
