CHEMBL3265025 flip
     RDKit          3D

 50 54  0  0  1  0  0  0  0  0999 V2000
   -4.6684   -2.1675   15.8477 C   0  0  2  0  0  0  0  0  0  0  0  0
   -3.9255   -1.8237   14.7367 O   0  0  0  0  0  0  0  0  0  0  0  0
   -2.5585   -1.8253   14.9259 C   0  0  0  0  0  0  0  0  0  0  0  0
   -2.0291   -2.1576   16.1672 C   0  0  0  0  0  0  0  0  0  0  0  0
   -0.6524   -2.1592   16.3578 C   0  0  0  0  0  0  0  0  0  0  0  0
    0.1949   -1.8284   15.3069 C   0  0  0  0  0  0  0  0  0  0  0  0
    1.6411   -1.8301   15.5070 N   0  0  0  0  0  0  0  0  0  0  0  0
    2.4496   -0.7252   14.9999 C   0  0  0  0  0  0  0  0  0  0  0  0
    1.8739    0.1140   14.0893 N   0  0  0  0  0  0  0  0  0  0  0  0
    2.6010    1.1512   13.5992 C   0  0  0  0  0  0  0  0  0  0  0  0
    3.9149    1.3888   13.9936 C   0  0  0  0  0  0  0  0  0  0  0  0
    4.4770    0.5366   14.9083 N   0  0  0  0  0  0  0  0  0  0  0  0
    5.7164    0.4903   15.4919 C   0  0  0  0  0  0  0  0  0  0  0  0
    5.6927   -0.6132   16.3445 C   0  0  0  0  0  0  0  0  0  0  0  0
    4.5387   -1.2534   16.3356 N   0  0  0  0  0  0  0  0  0  0  0  0
    3.7720   -0.5538   15.4498 C   0  0  0  0  0  0  0  0  0  0  0  0
    1.9301    2.0480   12.6014 C   0  0  0  0  0  0  0  0  0  0  0  0
    2.6312    3.1218   12.0444 C   0  0  0  0  0  0  0  0  0  0  0  0
    2.0089    3.9662   11.1206 C   0  0  0  0  0  0  0  0  0  0  0  0
    0.6846    3.7265   10.7493 C   0  0  0  0  0  0  0  0  0  0  0  0
    0.0256    4.5636    9.8556 N   0  0  0  0  0  0  0  0  0  0  0  0
   -1.1994    4.3753    9.3425 C   0  0  0  0  0  0  0  0  0  0  0  0
   -1.7461    5.2082    8.6181 O   0  0  0  0  0  0  0  0  0  0  0  0
   -1.7975    2.9870    9.7211 C   0  0  2  0  0  0  0  0  0  0  0  0
   -1.3304    2.4138   10.9769 O   0  0  0  0  0  0  0  0  0  0  0  0
   -0.0090    2.6455   11.3026 C   0  0  0  0  0  0  0  0  0  0  0  0
    0.6028    1.8106   12.2351 C   0  0  0  0  0  0  0  0  0  0  0  0
   -0.3345   -1.4961   14.0656 C   0  0  0  0  0  0  0  0  0  0  0  0
   -1.7112   -1.4945   13.8751 C   0  0  0  0  0  0  0  0  0  0  0  0
   -2.2368   -1.1645   12.6425 O   0  0  0  0  0  0  0  0  0  0  0  0
   -1.3034   -0.8540   11.6746 C   0  0  2  0  0  0  0  0  0  0  0  0
   -5.7292   -2.1374   15.5990 H   0  0  0  0  0  0  0  0  0  0  0  0
   -4.4640   -1.4629   16.6538 H   0  0  0  0  0  0  0  0  0  0  0  0
   -4.3987   -3.1740   16.1679 H   0  0  0  0  0  0  0  0  0  0  0  0
   -2.6888   -2.4151   16.9854 H   0  0  0  0  0  0  0  0  0  0  0  0
   -0.2403   -2.4180   17.3242 H   0  0  0  0  0  0  0  0  0  0  0  0
    2.0932   -2.6145   16.0085 H   0  0  0  0  0  0  0  0  0  0  0  0
    4.5247    2.2014   13.6273 H   0  0  0  0  0  0  0  0  0  0  0  0
    6.4913    1.2100   15.2713 H   0  0  0  0  0  0  0  0  0  0  0  0
    6.5197   -0.9412   16.9663 H   0  0  0  0  0  0  0  0  0  0  0  0
    3.6578    3.3037   12.3340 H   0  0  0  0  0  0  0  0  0  0  0  0
    2.5575    4.8000   10.7031 H   0  0  0  0  0  0  0  0  0  0  0  0
    0.4553    5.4286    9.5630 H   0  0  0  0  0  0  0  0  0  0  0  0
   -1.5683    2.3085    8.8995 H   0  0  0  0  0  0  0  0  0  0  0  0
   -2.8820    3.0856    9.7525 H   0  0  0  0  0  0  0  0  0  0  0  0
    0.0541    0.9863   12.6687 H   0  0  0  0  0  0  0  0  0  0  0  0
    0.3252   -1.2386   13.2475 H   0  0  0  0  0  0  0  0  0  0  0  0
   -1.8137   -0.6090   10.7431 H   0  0  0  0  0  0  0  0  0  0  0  0
   -0.6470   -1.7095   11.5151 H   0  0  0  0  0  0  0  0  0  0  0  0
   -0.7123    0.0016   12.0011 H   0  0  0  0  0  0  0  0  0  0  0  0
  1  2  1  0
  1 32  1  6
  1 33  1  0
  1 34  1  0
  2  3  1  0
  3  4  2  0
  3 29  1  0
  4  5  1  0
  4 35  1  0
  5  6  2  0
  5 36  1  0
  6  7  1  0
  6 28  1  0
  7  8  1  0
  7 37  1  0
  8  9  2  0
  8 16  1  0
  9 10  1  0
 10 11  2  0
 10 17  1  0
 11 12  1  0
 11 38  1  0
 12 13  1  0
 12 16  1  0
 13 14  2  0
 13 39  1  0
 14 15  1  0
 14 40  1  0
 15 16  2  0
 17 18  2  0
 17 27  1  0
 18 19  1  0
 18 41  1  0
 19 20  2  0
 19 42  1  0
 20 21  1  0
 20 26  1  0
 21 22  1  0
 21 43  1  0
 22 23  2  0
 22 24  1  0
 24 25  1  0
 24 44  1  6
 24 45  1  0
 25 26  1  0
 26 27  2  0
 27 46  1  0
 28 29  2  0
 28 47  1  0
 29 30  1  0
 30 31  1  0
 31 48  1  6
 31 49  1  0
 31 50  1  0
M  END
