CHEMBL3265003 tautomer 1
     RDKit          3D

 65 70  0  0  1  0  0  0  0  0999 V2000
   -4.2787   -3.0724   13.6807 C   0  0  2  0  0  0  0  0  0  0  0  0
   -3.8813   -2.3364   14.8299 O   0  0  0  0  0  0  0  0  0  0  0  0
   -2.5314   -2.0954   14.9063 C   0  0  0  0  0  0  0  0  0  0  0  0
   -1.7490   -2.8693   15.7651 C   0  0  0  0  0  0  0  0  0  0  0  0
   -0.3831   -2.6200   15.8873 C   0  0  0  0  0  0  0  0  0  0  0  0
    0.2219   -1.5876   15.1652 C   0  0  0  0  0  0  0  0  0  0  0  0
    1.5962   -1.3621   15.3695 N   0  0  0  0  0  0  0  0  0  0  0  0
    2.5463   -0.4805   14.8156 C   0  0  0  0  0  0  0  0  0  0  0  0
    2.2114    0.3554   13.7931 N   0  0  0  0  0  0  0  0  0  0  0  0
    3.1147    1.2420   13.2913 C   0  0  0  0  0  0  0  0  0  0  0  0
    4.4184    1.2945   13.7771 C   0  0  0  0  0  0  0  0  0  0  0  0
    4.7536    0.4706   14.8130 N   0  0  0  0  0  0  0  0  0  0  0  0
    5.9027    0.3496   15.5374 C   0  0  0  0  0  0  0  0  0  0  0  0
    5.5915   -0.5518   16.5460 C   0  0  0  0  0  0  0  0  0  0  0  0
    4.3980   -1.0906   16.4278 N   0  0  0  0  0  0  0  0  0  0  0  0
    3.8405   -0.4401   15.3736 C   0  0  0  0  0  0  0  0  0  0  0  0
    2.6408    2.1704   12.2217 C   0  0  0  0  0  0  0  0  0  0  0  0
    3.5325    2.6483   11.2493 C   0  0  0  0  0  0  0  0  0  0  0  0
    3.0977    3.4826   10.2235 C   0  0  0  0  0  0  0  0  0  0  0  0
    1.7568    3.8473   10.1460 C   0  0  0  0  0  0  0  0  0  0  0  0
    0.8435    3.4045   11.1092 C   0  0  0  0  0  0  0  0  0  0  0  0
    1.2993    2.5788   12.1484 C   0  0  0  0  0  0  0  0  0  0  0  0
   -0.6105    3.7720   10.9821 C   0  0  0  0  0  0  0  0  0  0  0  0
   -1.1439    3.7575    9.8712 O   0  0  0  0  0  0  0  0  0  0  0  0
   -1.2262    4.1292   12.1324 N   0  0  0  0  0  0  0  0  0  0  0  0
   -2.5595    4.5446   12.2994 C   0  0  0  0  0  0  0  0  0  0  0  0
   -3.6095    4.1128   11.4777 C   0  0  0  0  0  0  0  0  0  0  0  0
   -4.9019    4.5782   11.6974 C   0  0  0  0  0  0  0  0  0  0  0  0
   -5.1754    5.4656   12.7478 C   0  0  0  0  0  0  0  0  0  0  0  0
   -4.1234    5.8634   13.5861 C   0  0  0  0  0  0  0  0  0  0  0  0
   -2.8269    5.4095   13.3611 C   0  0  0  0  0  0  0  0  0  0  0  0
   -6.5708    5.9637   12.9823 C   0  0  0  0  0  0  0  0  0  0  0  0
   -7.7988    5.6352   12.4378 C   0  0  0  0  0  0  0  0  0  0  0  0
   -8.7223    6.4646   13.0822 C   0  0  0  0  0  0  0  0  0  0  0  0
   -8.1459    7.2552   13.9609 N   0  0  0  0  0  0  0  0  0  0  0  0
   -6.8393    6.9476   13.8969 N   0  0  0  0  0  0  0  0  0  0  0  0
   -0.5726   -0.8180   14.3041 C   0  0  0  0  0  0  0  0  0  0  0  0
   -1.9478   -1.0608   14.1631 C   0  0  0  0  0  0  0  0  0  0  0  0
   -2.7769   -0.3260   13.3331 O   0  0  0  0  0  0  0  0  0  0  0  0
   -2.2219    0.7095   12.5287 C   0  0  2  0  0  0  0  0  0  0  0  0
   -5.3686   -3.2200   13.6986 H   0  0  0  0  0  0  0  0  0  0  0  0
   -3.7761   -4.0509   13.6801 H   0  0  0  0  0  0  0  0  0  0  0  0
   -3.9988   -2.5159   12.7740 H   0  0  0  0  0  0  0  0  0  0  0  0
   -2.1693   -3.6015   16.3010 H   0  0  0  0  0  0  0  0  0  0  0  0
    0.1622   -3.1802   16.5109 H   0  0  0  0  0  0  0  0  0  0  0  0
    2.1475   -1.9596   16.1105 H   0  0  0  0  0  0  0  0  0  0  0  0
    5.1695    1.9908   13.4288 H   0  0  0  0  0  0  0  0  0  0  0  0
    6.7799    0.9367   15.3198 H   0  0  0  0  0  0  0  0  0  0  0  0
    6.2369   -0.8874   17.3475 H   0  0  0  0  0  0  0  0  0  0  0  0
    4.5680    2.3445   11.2665 H   0  0  0  0  0  0  0  0  0  0  0  0
    3.7937    3.8261    9.4716 H   0  0  0  0  0  0  0  0  0  0  0  0
    1.4159    4.4701    9.3296 H   0  0  0  0  0  0  0  0  0  0  0  0
    0.6018    2.2052   12.8840 H   0  0  0  0  0  0  0  0  0  0  0  0
   -0.6705    4.1130   13.0816 H   0  0  0  0  0  0  0  0  0  0  0  0
   -3.4413    3.4254   10.6612 H   0  0  0  0  0  0  0  0  0  0  0  0
   -5.7032    4.2510   11.0505 H   0  0  0  0  0  0  0  0  0  0  0  0
   -4.3206    6.5377   14.4069 H   0  0  0  0  0  0  0  0  0  0  0  0
   -2.0345    5.7440   14.0149 H   0  0  0  0  0  0  0  0  0  0  0  0
   -8.1095    4.9848   11.7446 H   0  0  0  0  0  0  0  0  0  0  0  0
   -9.6932    6.4072   12.8499 H   0  0  0  0  0  0  0  0  0  0  0  0
   -8.7522    7.9637   14.5444 H   0  0  0  0  0  0  0  0  0  0  0  0
   -0.1409   -0.0752   13.7922 H   0  0  0  0  0  0  0  0  0  0  0  0
   -3.0202    1.1828   11.9381 H   0  0  0  0  0  0  0  0  0  0  0  0
   -1.4680    0.2830   11.8507 H   0  0  0  0  0  0  0  0  0  0  0  0
   -1.7488    1.4628   13.1758 H   0  0  0  0  0  0  0  0  0  0  0  0
  1  2  1  0
  1 41  1  1
  1 42  1  0
  1 43  1  0
  2  3  1  0
  3  4  2  0
  3 38  1  0
  4  5  1  0
  4 44  1  0
  5  6  2  0
  5 45  1  0
  6  7  1  0
  6 37  1  0
  7  8  1  0
  7 46  1  0
  8  9  2  0
  8 16  1  0
  9 10  1  0
 10 11  2  0
 10 17  1  0
 11 12  1  0
 11 47  1  0
 12 13  1  0
 12 16  1  0
 13 14  2  0
 13 48  1  0
 14 15  1  0
 14 49  1  0
 15 16  2  0
 17 18  2  0
 17 22  1  0
 18 19  1  0
 18 50  1  0
 19 20  2  0
 19 51  1  0
 20 21  1  0
 20 52  1  0
 21 22  2  0
 21 23  1  0
 22 53  1  0
 23 24  2  0
 23 25  1  0
 25 26  1  0
 25 54  1  0
 26 27  2  0
 26 31  1  0
 27 28  1  0
 27 55  1  0
 28 29  2  0
 28 56  1  0
 29 30  1  0
 29 32  1  0
 30 31  2  0
 30 57  1  0
 31 58  1  0
 32 36  2  0
 32 33  1  0
 33 34  2  0
 33 59  1  0
 34 35  1  0
 34 60  1  0
 35 36  1  0
 35 61  1  0
 37 38  2  0
 37 62  1  0
 38 39  1  0
 39 40  1  0
 40 63  1  6
 40 64  1  0
 40 65  1  0
M  END
