6b
     RDKit          3D

 41 43  0  0  1  0  0  0  0  0999 V2000
   15.1690    5.8260    4.2032 F   0  0  0  0  0  0  0  0  0  0  0  0
   15.9373    4.7760    4.4826 C   0  0  2  0  0  0  0  0  0  0  0  0
   17.1457    5.1925    4.8498 F   0  0  0  0  0  0  0  0  0  0  0  0
   16.0599    4.0297    3.3861 F   0  0  0  0  0  0  0  0  0  0  0  0
   15.3561    3.9396    5.5920 C   0  0  0  0  0  0  0  0  0  0  0  0
   15.9201    2.6887    5.8040 C   0  0  0  0  0  0  0  0  0  0  0  0
   15.3846    1.8527    6.7761 C   0  0  0  0  0  0  0  0  0  0  0  0
   15.8795    0.5972    6.8034 O   0  0  0  0  0  0  0  0  0  0  0  0
   17.0010    0.3254    7.5184 C   0  0  0  0  0  0  0  0  0  0  0  0
   17.7625   -0.7696    7.1062 C   0  0  0  0  0  0  0  0  0  0  0  0
   17.5711   -1.2806    5.7968 N   0  0  0  0  0  0  0  0  0  0  0  0
   18.4812   -1.9327    5.0621 C   0  0  0  0  0  0  0  0  0  0  0  0
   19.6060   -2.1897    5.4688 O   0  0  0  0  0  0  0  0  0  0  0  0
   18.0384   -2.2078    3.8277 N   0  0  0  0  0  0  0  0  0  0  0  0
   18.6961   -2.9235    2.7931 C   0  0  0  0  0  0  0  0  0  0  0  0
   19.7021   -3.8997    2.9890 C   0  0  0  0  0  0  0  0  0  0  0  0
   20.0693   -4.3185    4.2160 F   0  0  0  0  0  0  0  0  0  0  0  0
   20.3064   -4.5304    1.8924 C   0  0  0  0  0  0  0  0  0  0  0  0
   19.8934   -4.2390    0.5898 C   0  0  0  0  0  0  0  0  0  0  0  0
   18.8558   -3.3193    0.3920 C   0  0  0  0  0  0  0  0  0  0  0  0
   18.2591   -2.6713    1.4851 C   0  0  0  0  0  0  0  0  0  0  0  0
   18.6246   -1.3422    8.0589 C   0  0  0  0  0  0  0  0  0  0  0  0
   18.7331   -0.7444    9.3227 C   0  0  0  0  0  0  0  0  0  0  0  0
   18.0153    0.4305    9.5748 C   0  0  0  0  0  0  0  0  0  0  0  0
   17.1607    0.9696    8.6926 N   0  0  0  0  0  0  0  0  0  0  0  0
   14.3070    2.2506    7.5891 C   0  0  0  0  0  0  0  0  0  0  0  0
   13.7531    3.5251    7.4022 C   0  0  0  0  0  0  0  0  0  0  0  0
   14.2752    4.3592    6.3969 C   0  0  0  0  0  0  0  0  0  0  0  0
   16.7345    2.3415    5.1843 H   0  0  0  0  0  0  0  0  0  0  0  0
   16.7324   -0.9874    5.3188 H   0  0  0  0  0  0  0  0  0  0  0  0
   17.1530   -1.7954    3.5768 H   0  0  0  0  0  0  0  0  0  0  0  0
   21.0764   -5.2702    2.0566 H   0  0  0  0  0  0  0  0  0  0  0  0
   20.3519   -4.7380   -0.2521 H   0  0  0  0  0  0  0  0  0  0  0  0
   18.5153   -3.1037   -0.6110 H   0  0  0  0  0  0  0  0  0  0  0  0
   17.4698   -1.9559    1.3099 H   0  0  0  0  0  0  0  0  0  0  0  0
   19.1883   -2.2380    7.8564 H   0  0  0  0  0  0  0  0  0  0  0  0
   19.3817   -1.1622   10.0788 H   0  0  0  0  0  0  0  0  0  0  0  0
   18.1037    0.9338   10.5263 H   0  0  0  0  0  0  0  0  0  0  0  0
   13.8967    1.5731    8.3254 H   0  0  0  0  0  0  0  0  0  0  0  0
   12.9205    3.8544    8.0072 H   0  0  0  0  0  0  0  0  0  0  0  0
   13.8320    5.3302    6.2371 H   0  0  0  0  0  0  0  0  0  0  0  0
  2  1  1  6
  2  3  1  0
  2  4  1  0
  2  5  1  0
  5 28  1  0
  5  6  2  0
  6  7  1  0
  6 29  1  0
  7  8  1  0
  7 26  2  0
  8  9  1  0
  9 25  1  0
  9 10  2  0
 10 11  1  0
 10 22  1  0
 11 12  1  0
 11 30  1  0
 12 13  2  0
 12 14  1  0
 14 15  1  0
 14 31  1  0
 15 21  1  0
 15 16  2  0
 16 17  1  0
 16 18  1  0
 18 19  2  0
 18 32  1  0
 19 20  1  0
 19 33  1  0
 20 21  2  0
 20 34  1  0
 21 35  1  0
 22 23  2  0
 22 36  1  0
 23 24  1  0
 23 37  1  0
 24 25  2  0
 24 38  1  0
 26 27  1  0
 26 39  1  0
 27 28  2  0
 27 40  1  0
 28 41  1  0
M  END
