6g
     RDKit          3D

 41 43  0  0  1  0  0  0  0  0999 V2000
   20.4182   -5.2809   -0.6699 Cl  0  0  0  0  0  0  0  0  0  0  0  0
   19.8384   -4.3124    0.6275 C   0  0  0  0  0  0  0  0  0  0  0  0
   20.2999   -4.5390    1.9291 C   0  0  0  0  0  0  0  0  0  0  0  0
   19.7240   -3.8543    3.0123 C   0  0  0  0  0  0  0  0  0  0  0  0
   18.6932   -2.9140    2.7943 C   0  0  0  0  0  0  0  0  0  0  0  0
   18.0387   -2.2002    3.8271 N   0  0  0  0  0  0  0  0  0  0  0  0
   18.4809   -1.9483    5.0683 C   0  0  0  0  0  0  0  0  0  0  0  0
   19.5812   -2.2867    5.4873 O   0  0  0  0  0  0  0  0  0  0  0  0
   17.5932   -1.2653    5.8057 N   0  0  0  0  0  0  0  0  0  0  0  0
   17.7968   -0.7601    7.1196 C   0  0  0  0  0  0  0  0  0  0  0  0
   17.0277    0.3222    7.5609 C   0  0  0  0  0  0  0  0  0  0  0  0
   15.8680    0.5624    6.9052 O   0  0  0  0  0  0  0  0  0  0  0  0
   15.3470    1.8093    6.8815 C   0  0  0  0  0  0  0  0  0  0  0  0
   15.8239    2.6534    5.8881 C   0  0  0  0  0  0  0  0  0  0  0  0
   15.2273    3.8931    5.7037 C   0  0  0  0  0  0  0  0  0  0  0  0
   15.7577    4.7265    4.5710 C   0  0  1  0  0  0  0  0  0  0  0  0
   15.0599    5.8462    4.4078 F   0  0  0  0  0  0  0  0  0  0  0  0
   17.0271    5.0261    4.8292 F   0  0  0  0  0  0  0  0  0  0  0  0
   15.7099    4.0075    3.4547 F   0  0  0  0  0  0  0  0  0  0  0  0
   14.1674    4.2948    6.5446 C   0  0  0  0  0  0  0  0  0  0  0  0
   13.7006    3.4485    7.5681 C   0  0  0  0  0  0  0  0  0  0  0  0
   14.2885    2.1845    7.7306 C   0  0  0  0  0  0  0  0  0  0  0  0
   17.2035    0.9700    8.7276 N   0  0  0  0  0  0  0  0  0  0  0  0
   18.0860    0.4457    9.5889 C   0  0  0  0  0  0  0  0  0  0  0  0
   18.8127   -0.7230    9.3211 C   0  0  0  0  0  0  0  0  0  0  0  0
   18.6861   -1.3226    8.0576 C   0  0  0  0  0  0  0  0  0  0  0  0
   18.2550   -2.6757    1.4831 C   0  0  0  0  0  0  0  0  0  0  0  0
   18.8344   -3.3584    0.4019 C   0  0  0  0  0  0  0  0  0  0  0  0
   21.0731   -5.2754    2.1047 H   0  0  0  0  0  0  0  0  0  0  0  0
   20.0749   -4.0837    4.0049 H   0  0  0  0  0  0  0  0  0  0  0  0
   17.1565   -1.7836    3.5707 H   0  0  0  0  0  0  0  0  0  0  0  0
   16.7628   -0.9485    5.3242 H   0  0  0  0  0  0  0  0  0  0  0  0
   16.6257    2.3293    5.2397 H   0  0  0  0  0  0  0  0  0  0  0  0
   13.7002    5.2566    6.3951 H   0  0  0  0  0  0  0  0  0  0  0  0
   12.8870    3.7592    8.2093 H   0  0  0  0  0  0  0  0  0  0  0  0
   13.9252    1.5038    8.4891 H   0  0  0  0  0  0  0  0  0  0  0  0
   18.1988    0.9514   10.5378 H   0  0  0  0  0  0  0  0  0  0  0  0
   19.4913   -1.1350   10.0585 H   0  0  0  0  0  0  0  0  0  0  0  0
   19.2622   -2.2104    7.8485 H   0  0  0  0  0  0  0  0  0  0  0  0
   17.4648   -1.9648    1.2993 H   0  0  0  0  0  0  0  0  0  0  0  0
   18.4706   -3.1804   -0.5993 H   0  0  0  0  0  0  0  0  0  0  0  0
  1  2  1  0
  2 28  1  0
  2  3  2  0
  3  4  1  0
  3 29  1  0
  4  5  2  0
  4 30  1  0
  5  6  1  0
  5 27  1  0
  6  7  1  0
  6 31  1  0
  7  8  2  0
  7  9  1  0
  9 10  1  0
  9 32  1  0
 10 26  1  0
 10 11  2  0
 11 12  1  0
 11 23  1  0
 12 13  1  0
 13 22  1  0
 13 14  2  0
 14 15  1  0
 14 33  1  0
 15 16  1  0
 15 20  2  0
 16 17  1  6
 16 18  1  0
 16 19  1  0
 20 21  1  0
 20 34  1  0
 21 22  2  0
 21 35  1  0
 22 36  1  0
 23 24  2  0
 24 25  1  0
 24 37  1  0
 25 26  2  0
 25 38  1  0
 26 39  1  0
 27 28  2  0
 27 40  1  0
 28 41  1  0
M  END
