6m
     RDKit          3D

 49 51  0  0  1  0  0  0  0  0999 V2000
   14.8540    5.7903    4.2294 F   0  0  0  0  0  0  0  0  0  0  0  0
   15.7331    4.8467    4.5502 C   0  0  2  0  0  0  0  0  0  0  0  0
   16.8754    5.4109    4.9265 F   0  0  0  0  0  0  0  0  0  0  0  0
   15.9651    4.0934    3.4786 F   0  0  0  0  0  0  0  0  0  0  0  0
   15.2324    3.9767    5.6737 C   0  0  0  0  0  0  0  0  0  0  0  0
   15.8349    2.7347    5.8284 C   0  0  0  0  0  0  0  0  0  0  0  0
   15.3685    1.8672    6.8071 C   0  0  0  0  0  0  0  0  0  0  0  0
   15.8921    0.6193    6.7825 O   0  0  0  0  0  0  0  0  0  0  0  0
   17.0022    0.3296    7.5121 C   0  0  0  0  0  0  0  0  0  0  0  0
   17.7584   -0.7725    7.1048 C   0  0  0  0  0  0  0  0  0  0  0  0
   17.5839   -1.2689    5.7861 N   0  0  0  0  0  0  0  0  0  0  0  0
   18.4821   -1.9468    5.0632 C   0  0  0  0  0  0  0  0  0  0  0  0
   19.5809   -2.2805    5.4903 O   0  0  0  0  0  0  0  0  0  0  0  0
   18.0438   -2.2038    3.8212 N   0  0  0  0  0  0  0  0  0  0  0  0
   18.6992   -2.9128    2.7862 C   0  0  0  0  0  0  0  0  0  0  0  0
   19.7215   -3.8504    3.0149 C   0  0  0  0  0  0  0  0  0  0  0  0
   20.3103   -4.5380    1.9502 C   0  0  0  0  0  0  0  0  0  0  0  0
   19.8612   -4.3651    0.6313 C   0  0  0  0  0  0  0  0  0  0  0  0
   20.3575   -5.2150   -0.3796 N   0  0  0  0  0  0  0  0  0  0  0  0
   19.8738   -5.0715   -1.7338 C   0  0  2  0  0  0  0  0  0  0  0  0
   20.6449   -6.5903    0.0063 C   0  0  1  0  0  0  0  0  0  0  0  0
   18.8670   -3.3898    0.3966 C   0  0  0  0  0  0  0  0  0  0  0  0
   18.2837   -2.6841    1.4657 C   0  0  0  0  0  0  0  0  0  0  0  0
   18.6043   -1.3588    8.0664 C   0  0  0  0  0  0  0  0  0  0  0  0
   18.7151   -0.7582    9.3281 C   0  0  0  0  0  0  0  0  0  0  0  0
   18.0040    0.4239    9.5757 C   0  0  0  0  0  0  0  0  0  0  0  0
   17.1540    0.9653    8.6907 N   0  0  0  0  0  0  0  0  0  0  0  0
   14.3158    2.2169    7.6727 C   0  0  0  0  0  0  0  0  0  0  0  0
   13.7259    3.4848    7.5459 C   0  0  0  0  0  0  0  0  0  0  0  0
   14.1842    4.3539    6.5392 C   0  0  0  0  0  0  0  0  0  0  0  0
   16.6245    2.4185    5.1620 H   0  0  0  0  0  0  0  0  0  0  0  0
   16.7623   -0.9466    5.2961 H   0  0  0  0  0  0  0  0  0  0  0  0
   17.1611   -1.7881    3.5687 H   0  0  0  0  0  0  0  0  0  0  0  0
   20.0788   -4.0778    4.0060 H   0  0  0  0  0  0  0  0  0  0  0  0
   21.0909   -5.2487    2.1817 H   0  0  0  0  0  0  0  0  0  0  0  0
   20.0220   -4.0580   -2.1120 H   0  0  0  0  0  0  0  0  0  0  0  0
   18.8138   -5.3233   -1.7701 H   0  0  0  0  0  0  0  0  0  0  0  0
   20.4025   -5.7405   -2.4144 H   0  0  0  0  0  0  0  0  0  0  0  0
   19.8989   -6.9745    0.7081 H   0  0  0  0  0  0  0  0  0  0  0  0
   20.6524   -7.2573   -0.8574 H   0  0  0  0  0  0  0  0  0  0  0  0
   21.6317   -6.6475    0.4707 H   0  0  0  0  0  0  0  0  0  0  0  0
   18.4950   -3.2063   -0.5997 H   0  0  0  0  0  0  0  0  0  0  0  0
   17.5098   -1.9603    1.2603 H   0  0  0  0  0  0  0  0  0  0  0  0
   19.1613   -2.2648    7.8773 H   0  0  0  0  0  0  0  0  0  0  0  0
   19.3613   -1.1738   10.0858 H   0  0  0  0  0  0  0  0  0  0  0  0
   18.0966    0.9319   10.5238 H   0  0  0  0  0  0  0  0  0  0  0  0
   13.9491    1.5158    8.4088 H   0  0  0  0  0  0  0  0  0  0  0  0
   12.9159    3.7791    8.1989 H   0  0  0  0  0  0  0  0  0  0  0  0
   13.7144    5.3178    6.4222 H   0  0  0  0  0  0  0  0  0  0  0  0
  2  1  1  6
  2  3  1  0
  2  4  1  0
  2  5  1  0
  5 30  1  0
  5  6  2  0
  6  7  1  0
  6 31  1  0
  7  8  1  0
  7 28  2  0
  8  9  1  0
  9 27  1  0
  9 10  2  0
 10 11  1  0
 10 24  1  0
 11 12  1  0
 11 32  1  0
 12 13  2  0
 12 14  1  0
 14 15  1  0
 14 33  1  0
 15 23  1  0
 15 16  2  0
 16 17  1  0
 16 34  1  0
 17 18  2  0
 17 35  1  0
 18 19  1  0
 18 22  1  0
 19 20  1  0
 19 21  1  0
 20 36  1  6
 20 37  1  0
 20 38  1  0
 21 39  1  1
 21 40  1  0
 21 41  1  0
 22 23  2  0
 22 42  1  0
 23 43  1  0
 24 25  2  0
 24 44  1  0
 25 26  1  0
 25 45  1  0
 26 27  2  0
 26 46  1  0
 28 29  1  0
 28 47  1  0
 29 30  2  0
 29 48  1  0
 30 49  1  0
M  END
