6d
     RDKit          3D

 41 43  0  0  1  0  0  0  0  0999 V2000
   14.8313    5.7503    4.2078 F   0  0  0  0  0  0  0  0  0  0  0  0
   15.7386    4.8475    4.5705 C   0  0  2  0  0  0  0  0  0  0  0  0
   16.8419    5.4641    4.9836 F   0  0  0  0  0  0  0  0  0  0  0  0
   16.0408    4.0942    3.5137 F   0  0  0  0  0  0  0  0  0  0  0  0
   15.2267    3.9716    5.6836 C   0  0  0  0  0  0  0  0  0  0  0  0
   15.8349    2.7331    5.8442 C   0  0  0  0  0  0  0  0  0  0  0  0
   15.3581    1.8570    6.8093 C   0  0  0  0  0  0  0  0  0  0  0  0
   15.8801    0.6101    6.7864 O   0  0  0  0  0  0  0  0  0  0  0  0
   16.9926    0.3291    7.5155 C   0  0  0  0  0  0  0  0  0  0  0  0
   17.7603   -0.7656    7.1037 C   0  0  0  0  0  0  0  0  0  0  0  0
   17.5826   -1.2665    5.7871 N   0  0  0  0  0  0  0  0  0  0  0  0
   18.4819   -1.9478    5.0634 C   0  0  0  0  0  0  0  0  0  0  0  0
   19.5825   -2.2849    5.4871 O   0  0  0  0  0  0  0  0  0  0  0  0
   18.0392   -2.2061    3.8250 N   0  0  0  0  0  0  0  0  0  0  0  0
   18.6924   -2.9180    2.7920 C   0  0  0  0  0  0  0  0  0  0  0  0
   19.7203   -3.8563    3.0098 C   0  0  0  0  0  0  0  0  0  0  0  0
   20.3181   -4.5052    1.9206 C   0  0  0  0  0  0  0  0  0  0  0  0
   21.3052   -5.4005    2.1276 F   0  0  0  0  0  0  0  0  0  0  0  0
   19.8924   -4.2407    0.6152 C   0  0  0  0  0  0  0  0  0  0  0  0
   18.8524   -3.3290    0.3972 C   0  0  0  0  0  0  0  0  0  0  0  0
   18.2526   -2.6744    1.4837 C   0  0  0  0  0  0  0  0  0  0  0  0
   18.6257   -1.3358    8.0577 C   0  0  0  0  0  0  0  0  0  0  0  0
   18.7285   -0.7424    9.3231 C   0  0  0  0  0  0  0  0  0  0  0  0
   18.0063    0.4308    9.5765 C   0  0  0  0  0  0  0  0  0  0  0  0
   17.1496    0.9698    8.6922 N   0  0  0  0  0  0  0  0  0  0  0  0
   14.2994    2.2029    7.6676 C   0  0  0  0  0  0  0  0  0  0  0  0
   13.7046    3.4658    7.5385 C   0  0  0  0  0  0  0  0  0  0  0  0
   14.1663    4.3423    6.5392 C   0  0  0  0  0  0  0  0  0  0  0  0
   16.6370    2.4229    5.1913 H   0  0  0  0  0  0  0  0  0  0  0  0
   16.7612   -0.9432    5.2965 H   0  0  0  0  0  0  0  0  0  0  0  0
   17.1597   -1.7810    3.5690 H   0  0  0  0  0  0  0  0  0  0  0  0
   20.0714   -4.1037    3.9998 H   0  0  0  0  0  0  0  0  0  0  0  0
   20.3579   -4.7444   -0.2202 H   0  0  0  0  0  0  0  0  0  0  0  0
   18.5116   -3.1274   -0.6081 H   0  0  0  0  0  0  0  0  0  0  0  0
   17.4594   -1.9651    1.3024 H   0  0  0  0  0  0  0  0  0  0  0  0
   19.2035   -2.2256    7.8602 H   0  0  0  0  0  0  0  0  0  0  0  0
   19.3896   -1.1533   10.0751 H   0  0  0  0  0  0  0  0  0  0  0  0
   18.0985    0.9331   10.5279 H   0  0  0  0  0  0  0  0  0  0  0  0
   13.9330    1.4947    8.3999 H   0  0  0  0  0  0  0  0  0  0  0  0
   12.8883    3.7526    8.1869 H   0  0  0  0  0  0  0  0  0  0  0  0
   13.6916    5.3037    6.4197 H   0  0  0  0  0  0  0  0  0  0  0  0
  2  1  1  6
  2  3  1  0
  2  4  1  0
  2  5  1  0
  5 28  1  0
  5  6  2  0
  6  7  1  0
  6 29  1  0
  7  8  1  0
  7 26  2  0
  8  9  1  0
  9 25  1  0
  9 10  2  0
 10 11  1  0
 10 22  1  0
 11 12  1  0
 11 30  1  0
 12 13  2  0
 12 14  1  0
 14 15  1  0
 14 31  1  0
 15 21  1  0
 15 16  2  0
 16 17  1  0
 16 32  1  0
 17 18  1  0
 17 19  2  0
 19 20  1  0
 19 33  1  0
 20 21  2  0
 20 34  1  0
 21 35  1  0
 22 23  2  0
 22 36  1  0
 23 24  1  0
 23 37  1  0
 24 25  2  0
 24 38  1  0
 26 27  1  0
 26 39  1  0
 27 28  2  0
 27 40  1  0
 28 41  1  0
M  END
