6l
     RDKit          3D

 45 47  0  0  1  0  0  0  0  0999 V2000
   15.9362    4.0940    3.4624 F   0  0  0  0  0  0  0  0  0  0  0  0
   15.7469    4.8437    4.5455 C   0  0  2  0  0  0  0  0  0  0  0  0
   14.8987    5.8247    4.2483 F   0  0  0  0  0  0  0  0  0  0  0  0
   16.9143    5.3616    4.9125 F   0  0  0  0  0  0  0  0  0  0  0  0
   15.2329    3.9747    5.6624 C   0  0  0  0  0  0  0  0  0  0  0  0
   15.8346    2.7331    5.8202 C   0  0  0  0  0  0  0  0  0  0  0  0
   15.3631    1.8652    6.7978 C   0  0  0  0  0  0  0  0  0  0  0  0
   15.8826    0.6179    6.7794 O   0  0  0  0  0  0  0  0  0  0  0  0
   16.9946    0.3333    7.5088 C   0  0  0  0  0  0  0  0  0  0  0  0
   17.7591   -0.7639    7.1000 C   0  0  0  0  0  0  0  0  0  0  0  0
   17.5837   -1.2663    5.7853 N   0  0  0  0  0  0  0  0  0  0  0  0
   18.4816   -1.9486    5.0633 C   0  0  0  0  0  0  0  0  0  0  0  0
   19.5787   -2.2897    5.4884 O   0  0  0  0  0  0  0  0  0  0  0  0
   18.0416   -2.2056    3.8250 N   0  0  0  0  0  0  0  0  0  0  0  0
   18.6953   -2.9148    2.7901 C   0  0  0  0  0  0  0  0  0  0  0  0
   19.7203   -3.8604    2.9968 C   0  0  0  0  0  0  0  0  0  0  0  0
   20.2817   -4.5438    1.9040 C   0  0  0  0  0  0  0  0  0  0  0  0
   19.8236   -4.2919    0.5944 C   0  0  0  0  0  0  0  0  0  0  0  0
   20.2353   -4.9728   -0.5226 O   0  0  0  0  0  0  0  0  0  0  0  0
   20.6279   -6.3205   -0.3400 C   0  0  2  0  0  0  0  0  0  0  0  0
   18.8372   -3.3206    0.3990 C   0  0  0  0  0  0  0  0  0  0  0  0
   18.2553   -2.6607    1.4868 C   0  0  0  0  0  0  0  0  0  0  0  0
   18.6068   -1.3472    8.0587 C   0  0  0  0  0  0  0  0  0  0  0  0
   18.7061   -0.7580    9.3263 C   0  0  0  0  0  0  0  0  0  0  0  0
   17.9948    0.4212    9.5766 C   0  0  0  0  0  0  0  0  0  0  0  0
   17.1498    0.9687    8.6891 N   0  0  0  0  0  0  0  0  0  0  0  0
   14.3093    2.2166    7.6591 C   0  0  0  0  0  0  0  0  0  0  0  0
   13.7209    3.4831    7.5279 C   0  0  0  0  0  0  0  0  0  0  0  0
   14.1803    4.3537    6.5231 C   0  0  0  0  0  0  0  0  0  0  0  0
   16.6298    2.4185    5.1594 H   0  0  0  0  0  0  0  0  0  0  0  0
   16.7648   -0.9405    5.2914 H   0  0  0  0  0  0  0  0  0  0  0  0
   17.1628   -1.7817    3.5671 H   0  0  0  0  0  0  0  0  0  0  0  0
   20.0783   -4.1026    3.9852 H   0  0  0  0  0  0  0  0  0  0  0  0
   21.0497   -5.2791    2.0905 H   0  0  0  0  0  0  0  0  0  0  0  0
   20.6378   -6.8284   -1.3045 H   0  0  0  0  0  0  0  0  0  0  0  0
   19.9446   -6.8667    0.3193 H   0  0  0  0  0  0  0  0  0  0  0  0
   21.6414   -6.3665    0.0716 H   0  0  0  0  0  0  0  0  0  0  0  0
   18.4827   -3.1160   -0.6003 H   0  0  0  0  0  0  0  0  0  0  0  0
   17.4694   -1.9426    1.3105 H   0  0  0  0  0  0  0  0  0  0  0  0
   19.1685   -2.2452    7.8600 H   0  0  0  0  0  0  0  0  0  0  0  0
   19.3469   -1.1864   10.0832 H   0  0  0  0  0  0  0  0  0  0  0  0
   18.0794    0.9213   10.5302 H   0  0  0  0  0  0  0  0  0  0  0  0
   13.9471    1.5143    8.3971 H   0  0  0  0  0  0  0  0  0  0  0  0
   12.9110    3.7801    8.1792 H   0  0  0  0  0  0  0  0  0  0  0  0
   13.7135    5.3194    6.4069 H   0  0  0  0  0  0  0  0  0  0  0  0
  2  1  1  6
  2  3  1  0
  2  4  1  0
  2  5  1  0
  5 29  1  0
  5  6  2  0
  6  7  1  0
  6 30  1  0
  7  8  1  0
  7 27  2  0
  8  9  1  0
  9 26  1  0
  9 10  2  0
 10 11  1  0
 10 23  1  0
 11 12  1  0
 11 31  1  0
 12 13  2  0
 12 14  1  0
 14 15  1  0
 14 32  1  0
 15 22  1  0
 15 16  2  0
 16 17  1  0
 16 33  1  0
 17 18  2  0
 17 34  1  0
 18 19  1  0
 18 21  1  0
 19 20  1  0
 20 35  1  6
 20 36  1  0
 20 37  1  0
 21 22  2  0
 21 38  1  0
 22 39  1  0
 23 24  2  0
 23 40  1  0
 24 25  1  0
 24 41  1  0
 25 26  2  0
 25 42  1  0
 27 28  1  0
 27 43  1  0
 28 29  2  0
 28 44  1  0
 29 45  1  0
M  END
