6q
     RDKit          3D

 41 43  0  0  1  0  0  0  0  0999 V2000
   20.9199   -6.2010    2.1985 Cl  0  0  0  0  0  0  0  0  0  0  0  0
   20.0757   -4.7277    1.9400 C   0  0  0  0  0  0  0  0  0  0  0  0
   19.9917   -4.2119    0.6429 C   0  0  0  0  0  0  0  0  0  0  0  0
   19.3156   -3.0070    0.4398 C   0  0  0  0  0  0  0  0  0  0  0  0
   19.4965   -2.2063   -1.0641 Cl  0  0  0  0  0  0  0  0  0  0  0  0
   18.6179   -2.3888    1.4897 C   0  0  0  0  0  0  0  0  0  0  0  0
   18.7125   -2.8980    2.7926 C   0  0  0  0  0  0  0  0  0  0  0  0
   18.0339   -2.2049    3.8237 N   0  0  0  0  0  0  0  0  0  0  0  0
   18.4872   -1.9683    5.0628 C   0  0  0  0  0  0  0  0  0  0  0  0
   19.5814   -2.3334    5.4684 O   0  0  0  0  0  0  0  0  0  0  0  0
   17.6025   -1.2787    5.7983 N   0  0  0  0  0  0  0  0  0  0  0  0
   17.8003   -0.7692    7.1089 C   0  0  0  0  0  0  0  0  0  0  0  0
   17.0237    0.3088    7.5422 C   0  0  0  0  0  0  0  0  0  0  0  0
   15.8798    0.5637    6.8611 O   0  0  0  0  0  0  0  0  0  0  0  0
   15.3551    1.8090    6.8664 C   0  0  0  0  0  0  0  0  0  0  0  0
   15.8357    2.6697    5.8886 C   0  0  0  0  0  0  0  0  0  0  0  0
   15.2302    3.9056    5.7132 C   0  0  0  0  0  0  0  0  0  0  0  0
   15.7371    4.7689    4.5886 C   0  0  1  0  0  0  0  0  0  0  0  0
   16.8172    5.4283    5.0012 F   0  0  0  0  0  0  0  0  0  0  0  0
   16.0754    3.9973    3.5523 F   0  0  0  0  0  0  0  0  0  0  0  0
   14.8119    5.6406    4.1893 F   0  0  0  0  0  0  0  0  0  0  0  0
   14.1723    4.2917    6.5643 C   0  0  0  0  0  0  0  0  0  0  0  0
   13.7139    3.4349    7.5795 C   0  0  0  0  0  0  0  0  0  0  0  0
   14.3027    2.1722    7.7275 C   0  0  0  0  0  0  0  0  0  0  0  0
   17.2039    0.9653    8.7063 N   0  0  0  0  0  0  0  0  0  0  0  0
   18.0933    0.4564    9.5684 C   0  0  0  0  0  0  0  0  0  0  0  0
   18.8255   -0.7079    9.3018 C   0  0  0  0  0  0  0  0  0  0  0  0
   18.7006   -1.3152    8.0443 C   0  0  0  0  0  0  0  0  0  0  0  0
   19.4740   -4.0602    3.0181 C   0  0  0  0  0  0  0  0  0  0  0  0
   20.4960   -4.7034   -0.1763 H   0  0  0  0  0  0  0  0  0  0  0  0
   18.0959   -1.4591    1.3049 H   0  0  0  0  0  0  0  0  0  0  0  0
   17.1624   -1.7648    3.5592 H   0  0  0  0  0  0  0  0  0  0  0  0
   16.7703   -0.9637    5.3178 H   0  0  0  0  0  0  0  0  0  0  0  0
   16.6392    2.3456    5.2423 H   0  0  0  0  0  0  0  0  0  0  0  0
   13.7039    5.2534    6.4342 H   0  0  0  0  0  0  0  0  0  0  0  0
   12.9001    3.7349    8.2242 H   0  0  0  0  0  0  0  0  0  0  0  0
   13.9362    1.4822    8.4759 H   0  0  0  0  0  0  0  0  0  0  0  0
   18.2033    0.9707   10.5095 H   0  0  0  0  0  0  0  0  0  0  0  0
   19.5109   -1.1005   10.0364 H   0  0  0  0  0  0  0  0  0  0  0  0
   19.2910   -2.1952    7.8392 H   0  0  0  0  0  0  0  0  0  0  0  0
   19.5647   -4.4762    4.0123 H   0  0  0  0  0  0  0  0  0  0  0  0
  1  2  1  0
  2 29  1  0
  2  3  2  0
  3  4  1  0
  3 30  1  0
  4  5  1  0
  4  6  2  0
  6  7  1  0
  6 31  1  0
  7  8  1  0
  7 29  2  0
  8  9  1  0
  8 32  1  0
  9 10  2  0
  9 11  1  0
 11 12  1  0
 11 33  1  0
 12 28  1  0
 12 13  2  0
 13 14  1  0
 13 25  1  0
 14 15  1  0
 15 24  1  0
 15 16  2  0
 16 17  1  0
 16 34  1  0
 17 18  1  0
 17 22  2  0
 18 19  1  1
 18 20  1  0
 18 21  1  0
 22 23  1  0
 22 35  1  0
 23 24  2  0
 23 36  1  0
 24 37  1  0
 25 26  2  0
 26 27  1  0
 26 38  1  0
 27 28  2  0
 27 39  1  0
 28 40  1  0
 29 41  1  0
M  END
