6k
     RDKit          3D

 51 54  0  0  1  0  0  0  0  0999 V2000
   16.0519    4.1602    3.4633 F   0  0  0  0  0  0  0  0  0  0  0  0
   15.7345    4.9058    4.5322 C   0  0  2  0  0  0  0  0  0  0  0  0
   14.8212    5.8174    4.1616 F   0  0  0  0  0  0  0  0  0  0  0  0
   16.8451    5.5266    4.9551 F   0  0  0  0  0  0  0  0  0  0  0  0
   15.2141    4.0127    5.6580 C   0  0  0  0  0  0  0  0  0  0  0  0
   15.8231    2.7585    5.8226 C   0  0  0  0  0  0  0  0  0  0  0  0
   15.3521    1.8837    6.8128 C   0  0  0  0  0  0  0  0  0  0  0  0
   15.8801    0.6281    6.8011 O   0  0  0  0  0  0  0  0  0  0  0  0
   16.9927    0.3311    7.5411 C   0  0  0  0  0  0  0  0  0  0  0  0
   17.7665   -0.7719    7.1318 C   0  0  0  0  0  0  0  0  0  0  0  0
   17.5750   -1.2873    5.8140 N   0  0  0  0  0  0  0  0  0  0  0  0
   18.4845   -1.9484    5.0757 C   0  0  0  0  0  0  0  0  0  0  0  0
   19.5917   -2.2820    5.4995 O   0  0  0  0  0  0  0  0  0  0  0  0
   18.0353   -2.2004    3.8310 N   0  0  0  0  0  0  0  0  0  0  0  0
   18.6987   -2.9009    2.7905 C   0  0  0  0  0  0  0  0  0  0  0  0
   18.2716   -2.6485    1.4693 C   0  0  0  0  0  0  0  0  0  0  0  0
   18.8453   -3.3508    0.3896 C   0  0  0  0  0  0  0  0  0  0  0  0
   19.8305   -4.3380    0.6290 C   0  0  0  0  0  0  0  0  0  0  0  0
   20.2377   -5.2775   -0.4244 C   0  0  0  0  0  0  0  0  0  0  0  0
   19.9861   -6.6601   -0.2399 C   0  0  0  0  0  0  0  0  0  0  0  0
   20.3357   -7.5987   -1.2350 C   0  0  0  0  0  0  0  0  0  0  0  0
   20.9468   -7.1561   -2.4315 C   0  0  0  0  0  0  0  0  0  0  0  0
   21.2080   -5.7781   -2.6224 C   0  0  0  0  0  0  0  0  0  0  0  0
   20.8505   -4.8409   -1.6228 C   0  0  0  0  0  0  0  0  0  0  0  0
   20.3034   -4.5401    1.9438 C   0  0  0  0  0  0  0  0  0  0  0  0
   19.7248   -3.8523    3.0226 C   0  0  0  0  0  0  0  0  0  0  0  0
   18.6513   -1.3360    8.0871 C   0  0  0  0  0  0  0  0  0  0  0  0
   18.7691   -0.7261    9.3515 C   0  0  0  0  0  0  0  0  0  0  0  0
   18.0285    0.4438    9.6098 C   0  0  0  0  0  0  0  0  0  0  0  0
   17.1511    0.9716    8.7265 N   0  0  0  0  0  0  0  0  0  0  0  0
   14.2861    2.2402    7.6803 C   0  0  0  0  0  0  0  0  0  0  0  0
   13.6877    3.5119    7.5415 C   0  0  0  0  0  0  0  0  0  0  0  0
   14.1469    4.3868    6.5256 C   0  0  0  0  0  0  0  0  0  0  0  0
   16.6180    2.4417    5.1613 H   0  0  0  0  0  0  0  0  0  0  0  0
   16.7374   -0.9873    5.3264 H   0  0  0  0  0  0  0  0  0  0  0  0
   17.1508   -1.7788    3.5748 H   0  0  0  0  0  0  0  0  0  0  0  0
   17.4879   -1.9314    1.2783 H   0  0  0  0  0  0  0  0  0  0  0  0
   18.4749   -3.1899   -0.6129 H   0  0  0  0  0  0  0  0  0  0  0  0
   19.5168   -7.0016    0.6713 H   0  0  0  0  0  0  0  0  0  0  0  0
   20.1412   -8.6513   -1.0811 H   0  0  0  0  0  0  0  0  0  0  0  0
   21.2123   -7.8692   -3.1997 H   0  0  0  0  0  0  0  0  0  0  0  0
   21.6652   -5.4339   -3.5393 H   0  0  0  0  0  0  0  0  0  0  0  0
   21.0424   -3.7866   -1.7727 H   0  0  0  0  0  0  0  0  0  0  0  0
   21.0563   -5.2914    2.1356 H   0  0  0  0  0  0  0  0  0  0  0  0
   20.0634   -4.0949    4.0189 H   0  0  0  0  0  0  0  0  0  0  0  0
   19.2236   -2.2276    7.8804 H   0  0  0  0  0  0  0  0  0  0  0  0
   19.4378   -1.1298   10.0961 H   0  0  0  0  0  0  0  0  0  0  0  0
   18.1179    0.9526   10.5580 H   0  0  0  0  0  0  0  0  0  0  0  0
   13.9319    1.5405    8.4226 H   0  0  0  0  0  0  0  0  0  0  0  0
   12.8752    3.8053    8.1911 H   0  0  0  0  0  0  0  0  0  0  0  0
   13.6652    5.3448    6.3992 H   0  0  0  0  0  0  0  0  0  0  0  0
  2  1  1  6
  2  3  1  0
  2  4  1  0
  2  5  1  0
  5 33  1  0
  5  6  2  0
  6  7  1  0
  6 34  1  0
  7  8  1  0
  7 31  2  0
  8  9  1  0
  9 30  1  0
  9 10  2  0
 10 11  1  0
 10 27  1  0
 11 12  1  0
 11 35  1  0
 12 13  2  0
 12 14  1  0
 14 15  1  0
 14 36  1  0
 15 26  1  0
 15 16  2  0
 16 17  1  0
 16 37  1  0
 17 18  2  0
 17 38  1  0
 18 19  1  0
 18 25  1  0
 19 24  1  0
 19 20  2  0
 20 21  1  0
 20 39  1  0
 21 22  2  0
 21 40  1  0
 22 23  1  0
 22 41  1  0
 23 24  2  0
 23 42  1  0
 24 43  1  0
 25 26  2  0
 25 44  1  0
 26 45  1  0
 27 28  2  0
 27 46  1  0
 28 29  1  0
 28 47  1  0
 29 30  2  0
 29 48  1  0
 31 32  1  0
 31 49  1  0
 32 33  2  0
 32 50  1  0
 33 51  1  0
M  END
