6h
     RDKit          3D

 44 46  0  0  1  0  0  0  0  0999 V2000
   16.7774    5.4121    4.9572 F   0  0  0  0  0  0  0  0  0  0  0  0
   15.7176    4.7129    4.5657 C   0  0  2  0  0  0  0  0  0  0  0  0
   16.0912    3.9254    3.5571 F   0  0  0  0  0  0  0  0  0  0  0  0
   14.7737    5.5494    4.1378 F   0  0  0  0  0  0  0  0  0  0  0  0
   15.2295    3.8742    5.7154 C   0  0  0  0  0  0  0  0  0  0  0  0
   15.8289    2.6376    5.9114 C   0  0  0  0  0  0  0  0  0  0  0  0
   15.3604    1.8044    6.9202 C   0  0  0  0  0  0  0  0  0  0  0  0
   15.8749    0.5534    6.9537 O   0  0  0  0  0  0  0  0  0  0  0  0
   17.0477    0.3139    7.5812 C   0  0  0  0  0  0  0  0  0  0  0  0
   17.8026   -0.7747    7.1290 C   0  0  0  0  0  0  0  0  0  0  0  0
   17.5943   -1.2826    5.8141 N   0  0  0  0  0  0  0  0  0  0  0  0
   18.4868   -1.9484    5.0683 C   0  0  0  0  0  0  0  0  0  0  0  0
   19.5898   -2.2848    5.4744 O   0  0  0  0  0  0  0  0  0  0  0  0
   18.0425   -2.2057    3.8310 N   0  0  0  0  0  0  0  0  0  0  0  0
   18.6928   -2.9142    2.7931 C   0  0  0  0  0  0  0  0  0  0  0  0
   18.2554   -2.6767    1.4834 C   0  0  0  0  0  0  0  0  0  0  0  0
   18.8450   -3.3510    0.4035 C   0  0  0  0  0  0  0  0  0  0  0  0
   19.8578   -4.2957    0.6235 C   0  0  0  0  0  0  0  0  0  0  0  0
   20.3929   -5.1216   -0.5250 C   0  0  2  0  0  0  0  0  0  0  0  0
   20.3031   -4.5253    1.9314 C   0  0  0  0  0  0  0  0  0  0  0  0
   19.7213   -3.8535    3.0174 C   0  0  0  0  0  0  0  0  0  0  0  0
   18.6968   -1.3383    8.0598 C   0  0  0  0  0  0  0  0  0  0  0  0
   18.8548   -0.7321    9.3140 C   0  0  0  0  0  0  0  0  0  0  0  0
   18.1456    0.4494    9.5857 C   0  0  0  0  0  0  0  0  0  0  0  0
   17.2459    0.9672    8.7375 N   0  0  0  0  0  0  0  0  0  0  0  0
   14.3058    2.1862    7.7731 C   0  0  0  0  0  0  0  0  0  0  0  0
   13.7130    3.4445    7.5903 C   0  0  0  0  0  0  0  0  0  0  0  0
   14.1748    4.2796    6.5582 C   0  0  0  0  0  0  0  0  0  0  0  0
   16.6065    2.2894    5.2520 H   0  0  0  0  0  0  0  0  0  0  0  0
   16.7633   -0.9648    5.3369 H   0  0  0  0  0  0  0  0  0  0  0  0
   17.1630   -1.7863    3.5788 H   0  0  0  0  0  0  0  0  0  0  0  0
   17.4690   -1.9554    1.3026 H   0  0  0  0  0  0  0  0  0  0  0  0
   18.4903   -3.1628   -0.5970 H   0  0  0  0  0  0  0  0  0  0  0  0
   20.8432   -6.0487   -0.1645 H   0  0  0  0  0  0  0  0  0  0  0  0
   21.1505   -4.5592   -1.0703 H   0  0  0  0  0  0  0  0  0  0  0  0
   19.5887   -5.3827   -1.2166 H   0  0  0  0  0  0  0  0  0  0  0  0
   21.0711   -5.2606    2.1171 H   0  0  0  0  0  0  0  0  0  0  0  0
   20.0750   -4.0934    4.0068 H   0  0  0  0  0  0  0  0  0  0  0  0
   19.2658   -2.2348    7.8443 H   0  0  0  0  0  0  0  0  0  0  0  0
   19.5478   -1.1330   10.0436 H   0  0  0  0  0  0  0  0  0  0  0  0
   18.2810    0.9785   10.5204 H   0  0  0  0  0  0  0  0  0  0  0  0
   13.9362    1.5138    8.5425 H   0  0  0  0  0  0  0  0  0  0  0  0
   12.9011    3.7609    8.2326 H   0  0  0  0  0  0  0  0  0  0  0  0
   13.6908    5.2319    6.4025 H   0  0  0  0  0  0  0  0  0  0  0  0
  2  1  1  1
  2  3  1  0
  2  4  1  0
  2  5  1  0
  5 28  1  0
  5  6  2  0
  6  7  1  0
  6 29  1  0
  7  8  1  0
  7 26  2  0
  8  9  1  0
  9 25  1  0
  9 10  2  0
 10 11  1  0
 10 22  1  0
 11 12  1  0
 11 30  1  0
 12 13  2  0
 12 14  1  0
 14 15  1  0
 14 31  1  0
 15 21  1  0
 15 16  2  0
 16 17  1  0
 16 32  1  0
 17 18  2  0
 17 33  1  0
 18 19  1  0
 18 20  1  0
 19 34  1  1
 19 35  1  0
 19 36  1  0
 20 21  2  0
 20 37  1  0
 21 38  1  0
 22 23  2  0
 22 39  1  0
 23 24  1  0
 23 40  1  0
 24 25  2  0
 24 41  1  0
 26 27  1  0
 26 42  1  0
 27 28  2  0
 27 43  1  0
 28 44  1  0
M  END
