6p
     RDKit          3D

 41 43  0  0  1  0  0  0  0  0999 V2000
   21.4988   -5.7203    2.2201 Cl  0  0  0  0  0  0  0  0  0  0  0  0
   20.2886   -4.5340    1.9262 C   0  0  0  0  0  0  0  0  0  0  0  0
   19.8318   -4.3018    0.6205 C   0  0  0  0  0  0  0  0  0  0  0  0
   20.3788   -5.2727   -0.6930 Cl  0  0  0  0  0  0  0  0  0  0  0  0
   18.8395   -3.3406    0.3983 C   0  0  0  0  0  0  0  0  0  0  0  0
   18.2630   -2.6605    1.4818 C   0  0  0  0  0  0  0  0  0  0  0  0
   18.6949   -2.9101    2.7923 C   0  0  0  0  0  0  0  0  0  0  0  0
   18.0410   -2.2058    3.8266 N   0  0  0  0  0  0  0  0  0  0  0  0
   18.4853   -1.9443    5.0638 C   0  0  0  0  0  0  0  0  0  0  0  0
   19.5856   -2.2793    5.4881 O   0  0  0  0  0  0  0  0  0  0  0  0
   17.5912   -1.2581    5.7844 N   0  0  0  0  0  0  0  0  0  0  0  0
   17.7661   -0.7577    7.1003 C   0  0  0  0  0  0  0  0  0  0  0  0
   16.9964    0.3340    7.5112 C   0  0  0  0  0  0  0  0  0  0  0  0
   15.8810    0.6110    6.7856 O   0  0  0  0  0  0  0  0  0  0  0  0
   15.3584    1.8555    6.8009 C   0  0  0  0  0  0  0  0  0  0  0  0
   15.8264    2.7275    5.8268 C   0  0  0  0  0  0  0  0  0  0  0  0
   15.2230    3.9668    5.6665 C   0  0  0  0  0  0  0  0  0  0  0  0
   15.7359    4.8294    4.5423 C   0  0  1  0  0  0  0  0  0  0  0  0
   14.8609    5.7755    4.2174 F   0  0  0  0  0  0  0  0  0  0  0  0
   16.8790    5.3902    4.9175 F   0  0  0  0  0  0  0  0  0  0  0  0
   15.9706    4.0693    3.4755 F   0  0  0  0  0  0  0  0  0  0  0  0
   14.1724    4.3444    6.5300 C   0  0  0  0  0  0  0  0  0  0  0  0
   13.7152    3.4670    7.5296 C   0  0  0  0  0  0  0  0  0  0  0  0
   14.3026    2.2010    7.6586 C   0  0  0  0  0  0  0  0  0  0  0  0
   17.1456    0.9699    8.6923 N   0  0  0  0  0  0  0  0  0  0  0  0
   17.9950    0.4249    9.5762 C   0  0  0  0  0  0  0  0  0  0  0  0
   18.7181   -0.7453    9.3224 C   0  0  0  0  0  0  0  0  0  0  0  0
   18.6231   -1.3355    8.0563 C   0  0  0  0  0  0  0  0  0  0  0  0
   19.7187   -3.8509    3.0107 C   0  0  0  0  0  0  0  0  0  0  0  0
   18.4908   -3.1479   -0.6069 H   0  0  0  0  0  0  0  0  0  0  0  0
   17.4953   -1.9251    1.2934 H   0  0  0  0  0  0  0  0  0  0  0  0
   17.1591   -1.7888    3.5720 H   0  0  0  0  0  0  0  0  0  0  0  0
   16.7695   -0.9381    5.2921 H   0  0  0  0  0  0  0  0  0  0  0  0
   16.6219    2.4213    5.1656 H   0  0  0  0  0  0  0  0  0  0  0  0
   13.6995    5.3091    6.4198 H   0  0  0  0  0  0  0  0  0  0  0  0
   12.9026    3.7544    8.1785 H   0  0  0  0  0  0  0  0  0  0  0  0
   13.9349    1.4904    8.3873 H   0  0  0  0  0  0  0  0  0  0  0  0
   18.0756    0.9152   10.5337 H   0  0  0  0  0  0  0  0  0  0  0  0
   19.3650   -1.1650   10.0773 H   0  0  0  0  0  0  0  0  0  0  0  0
   19.1950   -2.2296    7.8601 H   0  0  0  0  0  0  0  0  0  0  0  0
   20.0641   -4.0955    4.0032 H   0  0  0  0  0  0  0  0  0  0  0  0
  1  2  1  0
  2 29  1  0
  2  3  2  0
  3  4  1  0
  3  5  1  0
  5  6  2  0
  5 30  1  0
  6  7  1  0
  6 31  1  0
  7  8  1  0
  7 29  2  0
  8  9  1  0
  8 32  1  0
  9 10  2  0
  9 11  1  0
 11 12  1  0
 11 33  1  0
 12 28  1  0
 12 13  2  0
 13 14  1  0
 13 25  1  0
 14 15  1  0
 15 24  1  0
 15 16  2  0
 16 17  1  0
 16 34  1  0
 17 18  1  0
 17 22  2  0
 18 19  1  6
 18 20  1  0
 18 21  1  0
 22 23  1  0
 22 35  1  0
 23 24  2  0
 23 36  1  0
 24 37  1  0
 25 26  2  0
 26 27  1  0
 26 38  1  0
 27 28  2  0
 27 39  1  0
 28 40  1  0
 29 41  1  0
M  END
