6a
     RDKit          3D

 41 43  0  0  1  0  0  0  0  0999 V2000
   16.6942    5.6334    4.9273 F   0  0  0  0  0  0  0  0  0  0  0  0
   15.7401    4.8179    4.4792 C   0  0  2  0  0  0  0  0  0  0  0  0
   16.2532    4.0557    3.5082 F   0  0  0  0  0  0  0  0  0  0  0  0
   14.7334    5.5351    3.9788 F   0  0  0  0  0  0  0  0  0  0  0  0
   15.2519    3.9534    5.6209 C   0  0  0  0  0  0  0  0  0  0  0  0
   15.8542    2.7024    5.8035 C   0  0  0  0  0  0  0  0  0  0  0  0
   15.3659    1.8438    6.7921 C   0  0  0  0  0  0  0  0  0  0  0  0
   15.8797    0.5942    6.8018 O   0  0  0  0  0  0  0  0  0  0  0  0
   17.0053    0.3333    7.5146 C   0  0  0  0  0  0  0  0  0  0  0  0
   17.7753   -0.7580    7.0901 C   0  0  0  0  0  0  0  0  0  0  0  0
   17.5941   -1.2649    5.7808 N   0  0  0  0  0  0  0  0  0  0  0  0
   18.4938   -1.9473    5.0592 C   0  0  0  0  0  0  0  0  0  0  0  0
   19.6188   -2.2457    5.4763 O   0  0  0  0  0  0  0  0  0  0  0  0
   18.0441   -2.1962    3.8186 N   0  0  0  0  0  0  0  0  0  0  0  0
   18.6963   -2.9178    2.7899 C   0  0  0  0  0  0  0  0  0  0  0  0
   19.7269   -3.8572    3.0129 C   0  0  0  0  0  0  0  0  0  0  0  0
   20.3325   -4.5117    1.9220 C   0  0  0  0  0  0  0  0  0  0  0  0
   19.9026   -4.2452    0.6128 C   0  0  0  0  0  0  0  0  0  0  0  0
   18.8580   -3.3326    0.3962 C   0  0  0  0  0  0  0  0  0  0  0  0
   18.2500   -2.6761    1.4858 C   0  0  0  0  0  0  0  0  0  0  0  0
   18.6339   -1.3486    8.0486 C   0  0  0  0  0  0  0  0  0  0  0  0
   18.7144   -0.7635    9.3259 C   0  0  0  0  0  0  0  0  0  0  0  0
   18.0117    0.4263    9.5795 C   0  0  0  0  0  0  0  0  0  0  0  0
   17.1552    0.9642    8.6956 N   0  0  0  0  0  0  0  0  0  0  0  0
   14.3215    2.2242    7.6580 C   0  0  0  0  0  0  0  0  0  0  0  0
   13.7408    3.4917    7.5104 C   0  0  0  0  0  0  0  0  0  0  0  0
   14.1960    4.3444    6.4773 C   0  0  0  0  0  0  0  0  0  0  0  0
   16.6426    2.3577    5.1543 H   0  0  0  0  0  0  0  0  0  0  0  0
   16.7589   -0.9573    5.3015 H   0  0  0  0  0  0  0  0  0  0  0  0
   17.1501   -1.7892    3.5794 H   0  0  0  0  0  0  0  0  0  0  0  0
   20.0716   -4.0988    4.0010 H   0  0  0  0  0  0  0  0  0  0  0  0
   21.1223   -5.2206    2.0935 H   0  0  0  0  0  0  0  0  0  0  0  0
   20.3633   -4.7496   -0.2196 H   0  0  0  0  0  0  0  0  0  0  0  0
   18.5295   -3.1248   -0.6081 H   0  0  0  0  0  0  0  0  0  0  0  0
   17.4612   -1.9660    1.2960 H   0  0  0  0  0  0  0  0  0  0  0  0
   19.2092   -2.2466    7.8467 H   0  0  0  0  0  0  0  0  0  0  0  0
   19.3620   -1.1977   10.0721 H   0  0  0  0  0  0  0  0  0  0  0  0
   18.0856    0.8891   10.5448 H   0  0  0  0  0  0  0  0  0  0  0  0
   13.9505    1.5392    8.4082 H   0  0  0  0  0  0  0  0  0  0  0  0
   12.9287    3.8106    8.1629 H   0  0  0  0  0  0  0  0  0  0  0  0
   13.7526    5.3124    6.3572 H   0  0  0  0  0  0  0  0  0  0  0  0
  2  1  1  1
  2  3  1  0
  2  4  1  0
  2  5  1  0
  5 27  1  0
  5  6  2  0
  6  7  1  0
  6 28  1  0
  7  8  1  0
  7 25  2  0
  8  9  1  0
  9 24  1  0
  9 10  2  0
 10 11  1  0
 10 21  1  0
 11 12  1  0
 11 29  1  0
 12 13  2  0
 12 14  1  0
 14 15  1  0
 14 30  1  0
 15 20  1  0
 15 16  2  0
 16 17  1  0
 16 31  1  0
 17 18  2  0
 17 32  1  0
 18 19  1  0
 18 33  1  0
 19 20  2  0
 19 34  1  0
 20 35  1  0
 21 22  2  0
 21 36  1  0
 22 23  1  0
 22 37  1  0
 23 24  2  0
 23 38  1  0
 25 26  1  0
 25 39  1  0
 26 27  2  0
 26 40  1  0
 27 41  1  0
M  END
