5e
     RDKit          3D

 68 72  0  0  1  0  0  0  0  0999 V2000
   10.5060    8.4664   25.1369 C   0  0  0  0  0  0  0  0  0  0  0  0
   14.0448    7.5116   26.7613 Cl  0  0  0  0  0  0  0  0  0  0  0  0
    9.5752    8.0159   26.1199 C   0  0  0  0  0  0  0  0  0  0  0  0
    8.2290    8.1524   25.9600 N   0  0  0  0  0  0  0  0  0  0  0  0
    7.7986    8.7426   24.8082 C   0  0  0  0  0  0  0  0  0  0  0  0
    8.6137    9.2054   23.8143 N   0  0  0  0  0  0  0  0  0  0  0  0
    9.9421    9.0649   23.9968 C   0  0  0  0  0  0  0  0  0  0  0  0
   10.0715    7.4051   27.2927 C   0  0  0  0  0  0  0  0  0  0  0  0
   11.4491    7.2591   27.4794 C   0  0  0  0  0  0  0  0  0  0  0  0
   12.3502    7.7030   26.5131 C   0  0  0  0  0  0  0  0  0  0  0  0
   11.8961    8.3037   25.3416 C   0  0  0  0  0  0  0  0  0  0  0  0
    6.2994    8.8218   24.5419 C   0  0  0  0  0  0  0  0  0  0  0  0
    5.9551    8.4855   23.2993 N   0  0  0  0  0  0  0  0  0  0  0  0
    4.5920    8.5353   22.7929 C   0  0  2  0  0  0  0  0  0  0  0  0
    5.4501    9.1671   25.3672 O   0  0  0  0  0  0  0  0  0  0  0  0
    4.0043    7.1129   22.7895 C   0  0  1  0  0  0  0  0  0  0  0  0
    2.5673    7.1162   22.2122 C   0  0  2  0  0  0  0  0  0  0  0  0
    2.5176    7.7475   20.7918 C   0  0  2  0  0  0  0  0  0  0  0  0
    3.0852    9.1957   20.8192 C   0  0  2  0  0  0  0  0  0  0  0  0
    4.5136    9.2181   21.4048 C   0  0  2  0  0  0  0  0  0  0  0  0
    4.9084    6.2185   22.0719 N   0  0  0  0  0  0  0  0  0  0  0  0
    4.9264    4.8949   22.1858 C   0  0  0  0  0  0  0  0  0  0  0  0
    5.6646    4.2415   21.1209 C   0  0  0  0  0  0  0  0  0  0  0  0
    4.2645    4.2831   23.0259 O   0  0  0  0  0  0  0  0  0  0  0  0
    6.1759    4.7911   20.0362 N   0  0  0  0  0  0  0  0  0  0  0  0
    6.0592    2.5553   21.3175 S   0  0  0  0  0  0  0  0  0  0  0  0
   10.5790    9.4370   23.2073 H   0  0  0  0  0  0  0  0  0  0  0  0
    9.3636    7.0627   28.0337 H   0  0  0  0  0  0  0  0  0  0  0  0
   11.8281    6.7980   28.3817 H   0  0  0  0  0  0  0  0  0  0  0  0
   12.5966    8.6466   24.5924 H   0  0  0  0  0  0  0  0  0  0  0  0
    6.7023    8.2545   22.6620 H   0  0  0  0  0  0  0  0  0  0  0  0
    3.9674    9.1381   23.4619 H   0  0  0  0  0  0  0  0  0  0  0  0
    5.4908    6.6206   21.3529 H   0  0  0  0  0  0  0  0  0  0  0  0
    6.9158    3.9548   19.3541 C   0  0  0  0  0  0  0  0  0  0  0  0
    7.0250    2.6811   19.8872 C   0  0  0  0  0  0  0  0  0  0  0  0
    7.9001    1.6220   19.2816 C   0  0  2  0  0  0  0  0  0  0  0  0
    7.9386    1.8694   17.8345 N   0  0  0  0  0  0  0  0  0  0  0  0
    8.5061    3.1995   17.5565 C   0  0  2  0  0  0  0  0  0  0  0  0
    7.5778    4.3412   18.0470 C   0  0  2  0  0  0  0  0  0  0  0  0
    8.7498    0.8506   17.1984 C   0  0  1  0  0  0  0  0  0  0  0  0
    7.4924    0.6421   19.5037 H   0  0  0  0  0  0  0  0  0  0  0  0
    8.8987    1.6411   19.7244 H   0  0  0  0  0  0  0  0  0  0  0  0
    8.6778    3.3302   16.4860 H   0  0  0  0  0  0  0  0  0  0  0  0
    9.4902    3.2989   18.0226 H   0  0  0  0  0  0  0  0  0  0  0  0
    8.1484    5.2601   18.1569 H   0  0  0  0  0  0  0  0  0  0  0  0
    6.8161    4.5354   17.2926 H   0  0  0  0  0  0  0  0  0  0  0  0
    8.8052    1.0695   16.1341 H   0  0  0  0  0  0  0  0  0  0  0  0
    9.7610    0.8192   17.6086 H   0  0  0  0  0  0  0  0  0  0  0  0
    8.3099   -0.1391   17.3015 H   0  0  0  0  0  0  0  0  0  0  0  0
    1.0676    7.6910   20.2329 C   0  0  0  0  0  0  0  0  0  0  0  0
    0.3104    8.6412   20.4535 O   0  0  0  0  0  0  0  0  0  0  0  0
    0.6523    6.6056   19.5256 N   0  0  0  0  0  0  0  0  0  0  0  0
   -0.6704    6.5489   18.8879 C   0  0  1  0  0  0  0  0  0  0  0  0
    1.4912    5.4400   19.2160 C   0  0  1  0  0  0  0  0  0  0  0  0
    1.9149    7.6716   22.8889 H   0  0  0  0  0  0  0  0  0  0  0  0
    2.1778    6.0972   22.2014 H   0  0  0  0  0  0  0  0  0  0  0  0
    3.1372    7.1752   20.1018 H   0  0  0  0  0  0  0  0  0  0  0  0
    2.4464    9.8436   21.4236 H   0  0  0  0  0  0  0  0  0  0  0  0
    3.0887    9.6253   19.8165 H   0  0  0  0  0  0  0  0  0  0  0  0
    5.1953    8.7263   20.7088 H   0  0  0  0  0  0  0  0  0  0  0  0
    4.8606   10.2500   21.4809 H   0  0  0  0  0  0  0  0  0  0  0  0
   -1.1846    5.6238   19.1522 H   0  0  0  0  0  0  0  0  0  0  0  0
   -1.3260    7.3725   19.1766 H   0  0  0  0  0  0  0  0  0  0  0  0
   -0.5707    6.5750   17.8018 H   0  0  0  0  0  0  0  0  0  0  0  0
    2.0145    5.5847   18.2697 H   0  0  0  0  0  0  0  0  0  0  0  0
    2.2331    5.2304   19.9873 H   0  0  0  0  0  0  0  0  0  0  0  0
    0.8860    4.5368   19.1237 H   0  0  0  0  0  0  0  0  0  0  0  0
    3.9555    6.7753   23.8306 H   0  0  0  0  0  0  0  0  0  0  0  0
  1  3  1  0
  1  7  1  0
  1 11  2  0
  2 10  1  0
  3  4  1  0
  3  8  2  0
  4  5  2  0
  5  6  1  0
  5 12  1  0
  6  7  2  0
  7 27  1  0
  8  9  1  0
  8 28  1  0
  9 10  2  0
  9 29  1  0
 10 11  1  0
 11 30  1  0
 12 13  1  0
 12 15  2  0
 13 14  1  0
 13 31  1  0
 14 16  1  0
 14 20  1  0
 14 32  1  1
 16 17  1  0
 16 21  1  0
 16 68  1  1
 17 18  1  0
 17 55  1  1
 17 56  1  0
 18 19  1  0
 18 50  1  0
 18 57  1  6
 19 20  1  0
 19 58  1  1
 19 59  1  0
 20 60  1  6
 20 61  1  0
 21 22  1  0
 21 33  1  0
 22 23  1  0
 22 24  2  0
 23 25  2  0
 23 26  1  0
 25 34  1  0
 26 35  1  0
 34 35  2  0
 34 39  1  0
 35 36  1  0
 36 37  1  0
 36 41  1  6
 36 42  1  0
 37 38  1  0
 37 40  1  0
 38 39  1  0
 38 43  1  6
 38 44  1  0
 39 45  1  1
 39 46  1  0
 40 47  1  6
 40 48  1  0
 40 49  1  0
 50 51  2  0
 50 52  1  0
 52 53  1  0
 52 54  1  0
 53 62  1  6
 53 63  1  0
 53 64  1  0
 54 65  1  6
 54 66  1  0
 54 67  1  0
M  END
