6a
     RDKit          3D

 28 28  0  0  1  0  0  0  0  0999 V2000
   24.0713   12.3690   30.2524 C   0  0  1  0  0  0  0  0  0  0  0  0
   23.3106   11.0599   30.4602 C   0  0  1  0  0  0  0  0  0  0  0  0
   22.1968   11.3345   31.2848 O   0  0  0  0  0  0  0  0  0  0  0  0
   21.3996   10.2822   31.7013 C   0  0  0  0  0  0  0  0  0  0  0  0
   21.7456    9.0392   31.2731 N   0  0  0  0  0  0  0  0  0  0  0  0
   20.9690    8.0102   31.6444 C   0  0  0  0  0  0  0  0  0  0  0  0
   19.8629    8.1543   32.4698 C   0  0  0  0  0  0  0  0  0  0  0  0
   19.5195    9.4255   32.8937 C   0  0  0  0  0  0  0  0  0  0  0  0
   18.3840    9.5058   33.6916 N   0  0  0  0  0  0  0  0  0  0  0  0
   20.2911   10.5310   32.5019 C   0  0  0  0  0  0  0  0  0  0  0  0
   19.9686   11.9007   32.8839 C   0  0  0  0  0  0  0  0  0  0  0  0
   19.7198   12.9913   33.1811 N   0  0  0  0  0  0  0  0  0  0  0  0
   21.4280    6.8298   31.0994 N   0  0  0  0  0  0  0  0  0  0  0  0
   20.8471    5.6238   31.0233 C   0  0  0  0  0  0  0  0  0  0  0  0
   19.7218    5.3642   31.4396 O   0  0  0  0  0  0  0  0  0  0  0  0
   21.6453    4.5492   30.2959 C   0  0  1  0  0  0  0  0  0  0  0  0
   24.9345   12.2216   29.6036 H   0  0  0  0  0  0  0  0  0  0  0  0
   23.4300   13.1202   29.7898 H   0  0  0  0  0  0  0  0  0  0  0  0
   24.4250   12.7712   31.2018 H   0  0  0  0  0  0  0  0  0  0  0  0
   22.9801   10.6550   29.5008 H   0  0  0  0  0  0  0  0  0  0  0  0
   23.9680   10.3224   30.9268 H   0  0  0  0  0  0  0  0  0  0  0  0
   19.2676    7.3074   32.7670 H   0  0  0  0  0  0  0  0  0  0  0  0
   17.9993   10.4113   33.9504 H   0  0  0  0  0  0  0  0  0  0  0  0
   17.9026    8.6580   33.9748 H   0  0  0  0  0  0  0  0  0  0  0  0
   22.3368    6.9338   30.6757 H   0  0  0  0  0  0  0  0  0  0  0  0
   21.0991    3.6090   30.2933 H   0  0  0  0  0  0  0  0  0  0  0  0
   21.7136    4.8768   29.2646 H   0  0  0  0  0  0  0  0  0  0  0  0
   22.6349    4.4281   30.7366 H   0  0  0  0  0  0  0  0  0  0  0  0
  1  2  1  0
  1 17  1  6
  1 18  1  0
  1 19  1  0
  2  3  1  0
  2 20  1  6
  2 21  1  0
  3  4  1  0
  4 10  1  0
  4  5  2  0
  5  6  1  0
  6  7  2  0
  6 13  1  0
  7  8  1  0
  7 22  1  0
  8  9  1  0
  8 10  2  0
  9 23  1  0
  9 24  1  0
 10 11  1  0
 11 12  3  0
 13 14  1  0
 13 25  1  0
 14 15  2  0
 14 16  1  0
 16 26  1  6
 16 27  1  0
 16 28  1  0
M  END
