17q
     RDKit          3D

 49 52  0  0  1  0  0  0  0  0999 V2000
   14.3739   -8.3718   -0.5979 C   0  0  0  0  0  0  0  0  0  0  0  0
   14.3475   -8.0117   -1.8693 N   0  0  0  0  0  0  0  0  0  0  0  0
   15.6494   -7.8340   -2.2969 N   0  0  0  0  0  0  0  0  0  0  0  0
   15.6852   -8.4423   -0.1510 C   0  0  0  0  0  0  0  0  0  0  0  0
   16.4358   -8.0988   -1.2466 N   0  0  0  0  0  0  0  0  0  0  0  0
   17.8723   -7.9717   -1.4752 C   0  0  2  0  0  0  0  0  0  0  0  0
   18.6128   -9.2294   -0.9901 C   0  0  1  0  0  0  0  0  0  0  0  0
   18.2247  -10.3300   -1.7266 O   0  0  0  0  0  0  0  0  0  0  0  0
   18.4278   -6.7273   -0.7622 C   0  0  1  0  0  0  0  0  0  0  0  0
   18.0556   -6.7520    0.5655 O   0  0  0  0  0  0  0  0  0  0  0  0
   19.9644   -6.6641   -0.8562 C   0  0  1  0  0  0  0  0  0  0  0  0
   20.4848   -5.5093   -0.0527 C   0  0  1  0  0  0  0  0  0  0  0  0
   21.8221   -5.3181   -0.3349 O   0  0  0  0  0  0  0  0  0  0  0  0
   20.5330   -7.8771   -0.3539 O   0  0  0  0  0  0  0  0  0  0  0  0
   20.1408   -9.0499   -1.0735 C   0  0  1  0  0  0  0  0  0  0  0  0
   20.9643  -10.4642   -0.3736 S   0  0  0  0  0  0  0  0  0  0  0  0
   22.6578  -10.0777   -0.7625 C   0  0  0  0  0  0  0  0  0  0  0  0
   23.4416   -9.3885    0.1552 C   0  0  0  0  0  0  0  0  0  0  0  0
   24.7639   -9.0867   -0.1485 C   0  0  0  0  0  0  0  0  0  0  0  0
   25.3023   -9.4741   -1.3698 C   0  0  0  0  0  0  0  0  0  0  0  0
   24.5184  -10.1634   -2.2875 C   0  0  0  0  0  0  0  0  0  0  0  0
   23.1962  -10.4652   -1.9838 C   0  0  0  0  0  0  0  0  0  0  0  0
   16.1369   -8.6932    0.8002 H   0  0  0  0  0  0  0  0  0  0  0  0
   18.0004   -7.8640   -2.5546 H   0  0  0  0  0  0  0  0  0  0  0  0
   18.3358   -9.4422    0.0438 H   0  0  0  0  0  0  0  0  0  0  0  0
   18.4193  -10.2732   -2.7059 H   0  0  0  0  0  0  0  0  0  0  0  0
   17.9896   -5.8210   -1.1827 H   0  0  0  0  0  0  0  0  0  0  0  0
   17.4967   -5.9790    0.8645 H   0  0  0  0  0  0  0  0  0  0  0  0
   20.2855   -6.4938   -1.8862 H   0  0  0  0  0  0  0  0  0  0  0  0
   19.9271   -4.6083   -0.3081 H   0  0  0  0  0  0  0  0  0  0  0  0
   20.3645   -5.7222    1.0095 H   0  0  0  0  0  0  0  0  0  0  0  0
   22.2085   -5.9552   -1.0018 H   0  0  0  0  0  0  0  0  0  0  0  0
   20.4696   -8.9836   -2.1130 H   0  0  0  0  0  0  0  0  0  0  0  0
   23.0225   -9.0868    1.1060 H   0  0  0  0  0  0  0  0  0  0  0  0
   25.3742   -8.5500    0.5660 H   0  0  0  0  0  0  0  0  0  0  0  0
   24.9376  -10.4650   -3.2384 H   0  0  0  0  0  0  0  0  0  0  0  0
   22.5859  -11.0018   -2.6983 H   0  0  0  0  0  0  0  0  0  0  0  0
   26.7293   -9.1484   -1.6975 C   0  0  2  0  0  0  0  0  0  0  0  0
   26.9702   -9.5291   -2.6901 H   0  0  0  0  0  0  0  0  0  0  0  0
   27.3861   -9.6119   -0.9613 H   0  0  0  0  0  0  0  0  0  0  0  0
   26.8687   -8.0675   -1.6793 H   0  0  0  0  0  0  0  0  0  0  0  0
   13.1371   -8.6461    0.1500 C   0  0  0  0  0  0  0  0  0  0  0  0
   11.9390   -8.7707   -0.3854 N   0  0  0  0  0  0  0  0  0  0  0  0
   11.1154   -9.0081    0.6194 C   0  0  0  0  0  0  0  0  0  0  0  0
   11.7804   -9.0460    1.8378 C   0  0  0  0  0  0  0  0  0  0  0  0
   13.0914   -8.8110    1.5129 N   0  0  0  0  0  0  0  0  0  0  0  0
   11.4518   -9.2099    2.8581 H   0  0  0  0  0  0  0  0  0  0  0  0
   10.0556   -9.1490    0.4515 H   0  0  0  0  0  0  0  0  0  0  0  0
   13.8765   -8.7593    2.1447 H   0  0  0  0  0  0  0  0  0  0  0  0
  1  2  1  0
  1  4  2  0
  1 42  1  0
  2  3  2  0
  3  5  1  0
  4  5  1  0
  4 23  1  0
  5  6  1  0
  6  7  1  0
  6  9  1  0
  6 24  1  6
  7  8  1  0
  7 15  1  0
  7 25  1  1
  8 26  1  0
  9 10  1  0
  9 11  1  0
  9 27  1  6
 10 28  1  0
 11 12  1  0
 11 14  1  0
 11 29  1  6
 12 13  1  0
 12 30  1  6
 12 31  1  0
 13 32  1  0
 14 15  1  0
 15 16  1  0
 15 33  1  6
 16 17  1  0
 17 18  2  0
 17 22  1  0
 18 19  1  0
 18 34  1  0
 19 20  2  0
 19 35  1  0
 20 21  1  0
 20 38  1  0
 21 22  2  0
 21 36  1  0
 22 37  1  0
 38 39  1  6
 38 40  1  0
 38 41  1  0
 42 43  2  0
 42 46  1  0
 43 44  1  0
 44 45  2  0
 44 48  1  0
 45 46  1  0
 45 47  1  0
 46 49  1  0
M  END
