20
     RDKit          3D

 44 46  0  0  1  0  0  0  0  0999 V2000
   -5.0512   34.5588   -2.5973 C   0  0  0  0  0  0  0  0  0  0  0  0
   -4.4877   34.7292   -3.8445 C   0  0  0  0  0  0  0  0  0  0  0  0
   -3.6604   33.7366   -4.5697 C   0  0  0  0  0  0  0  0  0  0  0  0
   -5.8164   35.5644   -2.0192 N   0  0  0  0  0  0  0  0  0  0  0  0
   -5.8416   36.8616   -2.4930 C   0  0  0  0  0  0  0  0  0  0  0  0
   -5.0885   37.0638   -3.6063 N   0  0  0  0  0  0  0  0  0  0  0  0
   -4.8754   36.0106   -4.6542 C   0  0  2  0  0  0  0  0  0  0  0  0
   -6.5477   35.3428   -0.8353 C   0  0  0  0  0  0  0  0  0  0  0  0
   -6.0718   35.8075    0.3999 C   0  0  0  0  0  0  0  0  0  0  0  0
   -6.8281   35.6282    1.5549 C   0  0  0  0  0  0  0  0  0  0  0  0
   -8.0809   35.0212    1.4759 C   0  0  0  0  0  0  0  0  0  0  0  0
   -8.5714   34.5651    0.2477 C   0  0  0  0  0  0  0  0  0  0  0  0
   -7.7861   34.7004   -0.8971 C   0  0  0  0  0  0  0  0  0  0  0  0
   -9.9680   33.9770    0.1546 C   0  0  1  0  0  0  0  0  0  0  0  0
   -6.4666   37.8163   -2.0209 O   0  0  0  0  0  0  0  0  0  0  0  0
   -6.0417   35.8524   -5.6027 C   0  0  0  0  0  0  0  0  0  0  0  0
   -6.0899   36.6016   -6.7938 C   0  0  0  0  0  0  0  0  0  0  0  0
   -7.1289   36.5495   -7.6733 N   0  0  0  0  0  0  0  0  0  0  0  0
   -8.1539   35.7126   -7.3873 C   0  0  0  0  0  0  0  0  0  0  0  0
   -8.1619   34.8795   -6.2761 C   0  0  0  0  0  0  0  0  0  0  0  0
   -7.0931   34.9544   -5.3806 C   0  0  0  0  0  0  0  0  0  0  0  0
   -9.3151   35.7895   -8.2647 C   0  0  0  0  0  0  0  0  0  0  0  0
   -4.8206   33.3146   -1.7169 C   0  0  2  0  0  0  0  0  0  0  0  0
  -10.2506   33.2434    1.2333 F   0  0  0  0  0  0  0  0  0  0  0  0
  -10.8635   34.9582    0.0391 F   0  0  0  0  0  0  0  0  0  0  0  0
  -10.0631   33.2016   -0.9235 F   0  0  0  0  0  0  0  0  0  0  0  0
  -10.2363   35.8263   -8.9541 N   0  0  0  0  0  0  0  0  0  0  0  0
   -3.5583   33.8001   -6.0976 C   0  0  2  0  0  0  0  0  0  0  0  0
   -3.0383   32.8457   -3.9784 O   0  0  0  0  0  0  0  0  0  0  0  0
   -4.6031   37.9348   -3.6721 H   0  0  0  0  0  0  0  0  0  0  0  0
   -4.0361   36.3349   -5.2848 H   0  0  0  0  0  0  0  0  0  0  0  0
   -5.1266   36.3336    0.4608 H   0  0  0  0  0  0  0  0  0  0  0  0
   -6.4691   36.0028    2.5011 H   0  0  0  0  0  0  0  0  0  0  0  0
   -8.6816   34.9207    2.3703 H   0  0  0  0  0  0  0  0  0  0  0  0
   -8.1468   34.3575   -1.8603 H   0  0  0  0  0  0  0  0  0  0  0  0
   -5.3020   37.2916   -7.0617 H   0  0  0  0  0  0  0  0  0  0  0  0
   -8.9981   34.2284   -6.0604 H   0  0  0  0  0  0  0  0  0  0  0  0
   -7.1240   34.3398   -4.4973 H   0  0  0  0  0  0  0  0  0  0  0  0
   -4.2863   32.4925   -2.2219 H   0  0  0  0  0  0  0  0  0  0  0  0
   -5.7884   32.8938   -1.3932 H   0  0  0  0  0  0  0  0  0  0  0  0
   -4.2546   33.5997   -0.8227 H   0  0  0  0  0  0  0  0  0  0  0  0
   -2.9292   32.9875   -6.4524 H   0  0  0  0  0  0  0  0  0  0  0  0
   -3.0919   34.7411   -6.4005 H   0  0  0  0  0  0  0  0  0  0  0  0
   -4.5428   33.7087   -6.5650 H   0  0  0  0  0  0  0  0  0  0  0  0
  1  2  2  0
  1  4  1  0
  1 23  1  0
  2  3  1  0
  2  7  1  0
  3 28  1  0
  3 29  2  0
  4  5  1  0
  4  8  1  0
  5  6  1  0
  5 15  2  0
  6  7  1  0
  6 30  1  0
  7 16  1  0
  7 31  1  6
  8 13  1  0
  8  9  2  0
  9 10  1  0
  9 32  1  0
 10 11  2  0
 10 33  1  0
 11 12  1  0
 11 34  1  0
 12 13  2  0
 12 14  1  0
 13 35  1  0
 14 24  1  1
 14 25  1  0
 14 26  1  0
 16 21  1  0
 16 17  2  0
 17 18  1  0
 17 36  1  0
 18 19  2  0
 19 20  1  0
 19 22  1  0
 20 21  2  0
 20 37  1  0
 21 38  1  0
 22 27  3  0
 23 39  1  6
 23 40  1  0
 23 41  1  0
 28 42  1  6
 28 43  1  0
 28 44  1  0
M  END
