21
     RDKit          3D

 66 68  0  0  1  0  0  0  0  0999 V2000
   -5.0474   34.5209   -2.6004 C   0  0  0  0  0  0  0  0  0  0  0  0
   -4.5242   34.6759   -3.8539 C   0  0  0  0  0  0  0  0  0  0  0  0
   -3.6596   33.7295   -4.5811 C   0  0  0  0  0  0  0  0  0  0  0  0
   -5.7768   35.5656   -2.0161 N   0  0  0  0  0  0  0  0  0  0  0  0
   -5.7850   36.8555   -2.5167 C   0  0  0  0  0  0  0  0  0  0  0  0
   -4.9949   37.0308   -3.6304 N   0  0  0  0  0  0  0  0  0  0  0  0
   -4.9059   35.9465   -4.6327 C   0  0  2  0  0  0  0  0  0  0  0  0
   -6.5313   35.3389   -0.8334 C   0  0  0  0  0  0  0  0  0  0  0  0
   -6.0622   35.7991    0.4040 C   0  0  0  0  0  0  0  0  0  0  0  0
   -6.8218   35.6190    1.5579 C   0  0  0  0  0  0  0  0  0  0  0  0
   -8.0725   35.0070    1.4761 C   0  0  0  0  0  0  0  0  0  0  0  0
   -8.5632   34.5636    0.2433 C   0  0  0  0  0  0  0  0  0  0  0  0
   -7.7691   34.6933   -0.9005 C   0  0  0  0  0  0  0  0  0  0  0  0
   -9.9616   33.9655    0.1501 C   0  0  1  0  0  0  0  0  0  0  0  0
   -6.4614   37.7747   -2.0297 O   0  0  0  0  0  0  0  0  0  0  0  0
   -6.0863   35.8181   -5.6146 C   0  0  0  0  0  0  0  0  0  0  0  0
   -6.0464   36.5398   -6.8061 C   0  0  0  0  0  0  0  0  0  0  0  0
   -7.1127   36.4927   -7.6973 C   0  0  0  0  0  0  0  0  0  0  0  0
   -8.2102   35.6948   -7.4148 C   0  0  0  0  0  0  0  0  0  0  0  0
   -8.2046   34.8679   -6.2888 C   0  0  0  0  0  0  0  0  0  0  0  0
   -7.1482   34.9389   -5.3815 C   0  0  0  0  0  0  0  0  0  0  0  0
   -9.3890   35.7420   -8.2541 C   0  0  0  0  0  0  0  0  0  0  0  0
   -4.8143   33.3044   -1.6945 C   0  0  2  0  0  0  0  0  0  0  0  0
  -10.2480   33.2463    1.2361 F   0  0  0  0  0  0  0  0  0  0  0  0
  -10.8533   34.9490    0.0249 F   0  0  0  0  0  0  0  0  0  0  0  0
  -10.0735   33.1828   -0.9181 F   0  0  0  0  0  0  0  0  0  0  0  0
  -10.3338   35.8258   -8.9206 N   0  0  0  0  0  0  0  0  0  0  0  0
   -3.5658   33.7880   -6.1084 C   0  0  2  0  0  0  0  0  0  0  0  0
   -2.9539   32.8768   -4.0258 O   0  0  0  0  0  0  0  0  0  0  0  0
   -4.7117   38.3938   -4.0789 C   0  0  1  0  0  0  0  0  0  0  0  0
   -3.3248   38.6883   -4.6905 C   0  0  1  0  0  0  0  0  0  0  0  0
   -3.3887   39.8073   -5.7774 N   0  0  1  0  0  0  0  0  0  0  0  0
   -3.9045   39.2731   -7.1383 C   0  0  1  0  0  0  0  0  0  0  0  0
   -3.8458   40.3057   -8.2816 C   0  0  2  0  0  0  0  0  0  0  0  0
   -4.0625   41.1296   -5.3028 C   0  0  1  0  0  0  0  0  0  0  0  0
   -5.5742   40.9964   -4.9684 C   0  0  2  0  0  0  0  0  0  0  0  0
   -4.0967   36.1706   -5.3210 H   0  0  0  0  0  0  0  0  0  0  0  0
   -5.1058   36.3011    0.4721 H   0  0  0  0  0  0  0  0  0  0  0  0
   -6.4451   35.9690    2.5092 H   0  0  0  0  0  0  0  0  0  0  0  0
   -8.6679   34.9129    2.3735 H   0  0  0  0  0  0  0  0  0  0  0  0
   -8.1210   34.3265   -1.8554 H   0  0  0  0  0  0  0  0  0  0  0  0
   -5.1878   37.1300   -7.0469 H   0  0  0  0  0  0  0  0  0  0  0  0
   -7.0857   37.0954   -8.5966 H   0  0  0  0  0  0  0  0  0  0  0  0
   -9.0263   34.2004   -6.0795 H   0  0  0  0  0  0  0  0  0  0  0  0
   -7.1651   34.3096   -4.5049 H   0  0  0  0  0  0  0  0  0  0  0  0
   -4.0566   32.6095   -2.0350 H   0  0  0  0  0  0  0  0  0  0  0  0
   -5.7388   32.7355   -1.5960 H   0  0  0  0  0  0  0  0  0  0  0  0
   -4.4954   33.6243   -0.7022 H   0  0  0  0  0  0  0  0  0  0  0  0
   -2.7840   33.1236   -6.4701 H   0  0  0  0  0  0  0  0  0  0  0  0
   -3.3150   34.7895   -6.4547 H   0  0  0  0  0  0  0  0  0  0  0  0
   -4.5134   33.4920   -6.5610 H   0  0  0  0  0  0  0  0  0  0  0  0
   -5.4977   38.6306   -4.8064 H   0  0  0  0  0  0  0  0  0  0  0  0
   -4.8417   39.0855   -3.2340 H   0  0  0  0  0  0  0  0  0  0  0  0
   -2.6375   39.0659   -3.9312 H   0  0  0  0  0  0  0  0  0  0  0  0
   -2.8520   37.8239   -5.1609 H   0  0  0  0  0  0  0  0  0  0  0  0
   -3.2960   38.3921   -7.3784 H   0  0  0  0  0  0  0  0  0  0  0  0
   -4.9255   38.9875   -6.9558 H   0  0  0  0  0  0  0  0  0  0  0  0
   -4.2389   39.8571   -9.1947 H   0  0  0  0  0  0  0  0  0  0  0  0
   -2.8322   40.6487   -8.4972 H   0  0  0  0  0  0  0  0  0  0  0  0
   -4.4779   41.1686   -8.0792 H   0  0  0  0  0  0  0  0  0  0  0  0
   -3.4737   41.4793   -4.4531 H   0  0  0  0  0  0  0  0  0  0  0  0
   -3.9044   41.8410   -6.1157 H   0  0  0  0  0  0  0  0  0  0  0  0
   -6.0297   41.9782   -4.8507 H   0  0  0  0  0  0  0  0  0  0  0  0
   -5.7631   40.4776   -4.0520 H   0  0  0  0  0  0  0  0  0  0  0  0
   -6.1220   40.4884   -5.7742 H   0  0  0  0  0  0  0  0  0  0  0  0
   -2.4165   40.0427   -5.9462 H   0  0  0  0  0  0  0  0  0  0  0  0
  1  2  2  0
  1  4  1  0
  1 23  1  0
  2  3  1  0
  2  7  1  0
  3 28  1  0
  3 29  2  0
  4  5  1  0
  4  8  1  0
  5  6  1  0
  5 15  2  0
  6  7  1  0
  6 30  1  0
  7 16  1  0
  7 37  1  6
  8 13  1  0
  8  9  2  0
  9 10  1  0
  9 38  1  0
 10 11  2  0
 10 39  1  0
 11 12  1  0
 11 40  1  0
 12 13  2  0
 12 14  1  0
 13 41  1  0
 14 24  1  1
 14 25  1  0
 14 26  1  0
 16 21  1  0
 16 17  2  0
 17 18  1  0
 17 42  1  0
 18 19  2  0
 18 43  1  0
 19 20  1  0
 19 22  1  0
 20 21  2  0
 20 44  1  0
 21 45  1  0
 22 27  3  0
 23 46  1  6
 23 47  1  0
 23 48  1  0
 28 49  1  6
 28 50  1  0
 28 51  1  0
 30 31  1  0
 30 52  1  6
 30 53  1  0
 31 32  1  0
 31 54  1  1
 31 55  1  0
 32 33  1  0
 32 35  1  0
 32 66  1  6
 33 34  1  0
 33 56  1  6
 33 57  1  0
 34 58  1  6
 34 59  1  0
 34 60  1  0
 35 36  1  0
 35 61  1  1
 35 62  1  0
 36 63  1  1
 36 64  1  0
 36 65  1  0
M  CHG  1  32   1
M  END
