30
     RDKit          3D

 51 53  0  0  1  0  0  0  0  0999 V2000
   -4.9762   34.5476   -2.0206 C   0  0  0  0  0  0  0  0  0  0  0  0
   -4.3163   34.7930   -3.1720 C   0  0  0  0  0  0  0  0  0  0  0  0
   -3.4913   33.8159   -3.8045 C   0  0  0  0  0  0  0  0  0  0  0  0
   -5.7967   35.5258   -1.4735 N   0  0  0  0  0  0  0  0  0  0  0  0
   -5.8923   36.8117   -1.9503 C   0  0  0  0  0  0  0  0  0  0  0  0
   -4.8734   37.1259   -2.7943 N   0  0  0  0  0  0  0  0  0  0  0  0
   -4.5459   36.1406   -3.8740 C   0  0  2  0  0  0  0  0  0  0  0  0
   -6.6312   35.2453   -0.3951 C   0  0  0  0  0  0  0  0  0  0  0  0
   -6.2870   35.7319    0.8654 C   0  0  0  0  0  0  0  0  0  0  0  0
   -7.2043   35.6435    1.8945 C   0  0  0  0  0  0  0  0  0  0  0  0
   -8.4355   35.0263    1.6869 C   0  0  0  0  0  0  0  0  0  0  0  0
   -8.7721   34.5066    0.4339 C   0  0  0  0  0  0  0  0  0  0  0  0
   -7.8601   34.6257   -0.6159 C   0  0  0  0  0  0  0  0  0  0  0  0
  -10.1186   33.8417    0.2060 C   0  0  1  0  0  0  0  0  0  0  0  0
   -6.8065   37.6011   -1.6811 O   0  0  0  0  0  0  0  0  0  0  0  0
   -5.5690   36.0775   -5.0119 C   0  0  0  0  0  0  0  0  0  0  0  0
   -5.4566   36.8780   -6.1661 C   0  0  0  0  0  0  0  0  0  0  0  0
   -6.4893   36.8104   -7.1161 C   0  0  0  0  0  0  0  0  0  0  0  0
   -7.5625   35.9247   -6.9844 C   0  0  0  0  0  0  0  0  0  0  0  0
   -7.6184   35.0804   -5.8865 C   0  0  0  0  0  0  0  0  0  0  0  0
   -6.6435   35.1742   -4.9042 C   0  0  0  0  0  0  0  0  0  0  0  0
   -8.6279   35.8728   -7.9725 C   0  0  0  0  0  0  0  0  0  0  0  0
   -4.8442   33.2192   -1.2770 C   0  0  2  0  0  0  0  0  0  0  0  0
  -11.0490   34.7797    0.0394 F   0  0  0  0  0  0  0  0  0  0  0  0
  -10.0742   33.0876   -0.8898 F   0  0  0  0  0  0  0  0  0  0  0  0
  -10.4582   33.0741    1.2416 F   0  0  0  0  0  0  0  0  0  0  0  0
   -9.4760   35.8320   -8.7562 N   0  0  0  0  0  0  0  0  0  0  0  0
   -2.8231   33.0113   -4.2978 N   0  0  0  0  0  0  0  0  0  0  0  0
   -3.9966   37.9172   -6.5349 S   0  0  2  0  0  0  0  0  0  0  0  0
   -4.5295   38.5492   -2.8719 C   0  0  2  0  0  0  0  0  0  0  0  0
   -4.5819   39.4137   -7.5140 C   0  0  2  0  0  0  0  0  0  0  0  0
   -3.2633   37.0697   -7.5616 N   0  0  0  0  0  0  0  0  0  0  0  0
   -3.3218   38.4138   -5.3394 O   0  0  0  0  0  0  0  0  0  0  0  0
   -3.5913   36.3978   -4.3185 H   0  0  0  0  0  0  0  0  0  0  0  0
   -5.3446   36.2355    1.0293 H   0  0  0  0  0  0  0  0  0  0  0  0
   -6.9464   36.0791    2.8397 H   0  0  0  0  0  0  0  0  0  0  0  0
   -9.1147   34.9286    2.5186 H   0  0  0  0  0  0  0  0  0  0  0  0
   -8.1148   34.2814   -1.6099 H   0  0  0  0  0  0  0  0  0  0  0  0
   -6.4665   37.4497   -7.9744 H   0  0  0  0  0  0  0  0  0  0  0  0
   -8.4303   34.3745   -5.7575 H   0  0  0  0  0  0  0  0  0  0  0  0
   -6.7548   34.5269   -4.0472 H   0  0  0  0  0  0  0  0  0  0  0  0
   -3.9091   32.7117   -1.5178 H   0  0  0  0  0  0  0  0  0  0  0  0
   -5.6613   32.5607   -1.5637 H   0  0  0  0  0  0  0  0  0  0  0  0
   -4.8840   33.3523   -0.1967 H   0  0  0  0  0  0  0  0  0  0  0  0
   -3.4513   38.6637   -2.9800 H   0  0  0  0  0  0  0  0  0  0  0  0
   -4.8071   39.1044   -1.9732 H   0  0  0  0  0  0  0  0  0  0  0  0
   -5.0309   39.0210   -3.7174 H   0  0  0  0  0  0  0  0  0  0  0  0
   -3.7061   39.9439   -7.8892 H   0  0  0  0  0  0  0  0  0  0  0  0
   -5.1490   40.0615   -6.8462 H   0  0  0  0  0  0  0  0  0  0  0  0
   -5.2071   39.0967   -8.3391 H   0  0  0  0  0  0  0  0  0  0  0  0
   -3.5884   37.2771   -8.5075 H   0  0  0  0  0  0  0  0  0  0  0  0
  1  2  2  0
  1  4  1  0
  1 23  1  0
  2  3  1  0
  2  7  1  0
  3 28  3  0
  4  5  1  0
  4  8  1  0
  5  6  1  0
  5 15  2  0
  6  7  1  0
  6 30  1  0
  7 16  1  0
  7 34  1  6
  8 13  1  0
  8  9  2  0
  9 10  1  0
  9 35  1  0
 10 11  2  0
 10 36  1  0
 11 12  1  0
 11 37  1  0
 12 13  2  0
 12 14  1  0
 13 38  1  0
 14 24  1  6
 14 25  1  0
 14 26  1  0
 16 21  1  0
 16 17  2  0
 17 18  1  0
 29 17  1  1
 18 19  2  0
 18 39  1  0
 19 20  1  0
 19 22  1  0
 20 21  2  0
 20 40  1  0
 21 41  1  0
 22 27  3  0
 23 42  1  1
 23 43  1  0
 23 44  1  0
 29 31  1  0
 29 32  2  0
 29 33  2  0
 30 45  1  6
 30 46  1  0
 30 47  1  0
 31 48  1  6
 31 49  1  0
 31 50  1  0
 32 51  1  0
M  END
