25
     RDKit          3D

 44 46  0  0  1  0  0  0  0  0999 V2000
   -5.0405   34.5639   -2.5893 C   0  0  0  0  0  0  0  0  0  0  0  0
   -4.5531   34.7135   -3.8320 C   0  0  0  0  0  0  0  0  0  0  0  0
   -3.7488   33.7273   -4.4919 C   0  0  0  0  0  0  0  0  0  0  0  0
   -5.7805   35.5850   -1.9890 N   0  0  0  0  0  0  0  0  0  0  0  0
   -5.8189   36.8739   -2.4895 C   0  0  0  0  0  0  0  0  0  0  0  0
   -5.0618   37.0674   -3.6285 N   0  0  0  0  0  0  0  0  0  0  0  0
   -4.8894   35.9757   -4.6236 C   0  0  2  0  0  0  0  0  0  0  0  0
   -6.5217   35.3347   -0.8201 C   0  0  0  0  0  0  0  0  0  0  0  0
   -6.0598   35.7891    0.4201 C   0  0  0  0  0  0  0  0  0  0  0  0
   -6.8156   35.6192    1.5656 C   0  0  0  0  0  0  0  0  0  0  0  0
   -8.0767   35.0138    1.4794 C   0  0  0  0  0  0  0  0  0  0  0  0
   -8.5605   34.5665    0.2496 C   0  0  0  0  0  0  0  0  0  0  0  0
   -7.7687   34.6922   -0.8944 C   0  0  0  0  0  0  0  0  0  0  0  0
   -9.9591   33.9622    0.1544 C   0  0  1  0  0  0  0  0  0  0  0  0
   -6.4742   37.8025   -1.9874 O   0  0  0  0  0  0  0  0  0  0  0  0
   -6.0320   35.8368   -5.6344 C   0  0  0  0  0  0  0  0  0  0  0  0
   -6.0154   36.5889   -6.8097 C   0  0  0  0  0  0  0  0  0  0  0  0
   -7.0813   36.5201   -7.6993 C   0  0  0  0  0  0  0  0  0  0  0  0
   -8.1702   35.6990   -7.4233 C   0  0  0  0  0  0  0  0  0  0  0  0
   -8.1557   34.8820   -6.2924 C   0  0  0  0  0  0  0  0  0  0  0  0
   -7.0922   34.9533   -5.4036 C   0  0  0  0  0  0  0  0  0  0  0  0
   -9.3565   35.7721   -8.2403 C   0  0  0  0  0  0  0  0  0  0  0  0
   -4.7884   33.3089   -1.7427 C   0  0  2  0  0  0  0  0  0  0  0  0
  -10.0621   33.1818   -0.9157 F   0  0  0  0  0  0  0  0  0  0  0  0
  -10.2466   33.2411    1.2378 F   0  0  0  0  0  0  0  0  0  0  0  0
  -10.8496   34.9462    0.0358 F   0  0  0  0  0  0  0  0  0  0  0  0
  -10.3146   35.8277   -8.8919 N   0  0  0  0  0  0  0  0  0  0  0  0
   -3.0713   32.9693   -5.0314 N   0  0  0  0  0  0  0  0  0  0  0  0
   -5.1892   37.2510   -7.0204 H   0  0  0  0  0  0  0  0  0  0  0  0
   -4.7514   38.4271   -4.0463 C   0  0  2  0  0  0  0  0  0  0  0  0
   -3.9930   36.2304   -5.1998 H   0  0  0  0  0  0  0  0  0  0  0  0
   -5.1060   36.2996    0.4824 H   0  0  0  0  0  0  0  0  0  0  0  0
   -6.4472   35.9715    2.5158 H   0  0  0  0  0  0  0  0  0  0  0  0
   -8.6732   34.9182    2.3729 H   0  0  0  0  0  0  0  0  0  0  0  0
   -8.1205   34.3446   -1.8550 H   0  0  0  0  0  0  0  0  0  0  0  0
   -7.0764   37.1407   -8.5874 H   0  0  0  0  0  0  0  0  0  0  0  0
   -8.9869   34.2288   -6.0658 H   0  0  0  0  0  0  0  0  0  0  0  0
   -7.1221   34.3274   -4.5207 H   0  0  0  0  0  0  0  0  0  0  0  0
   -4.1036   32.6145   -2.2171 H   0  0  0  0  0  0  0  0  0  0  0  0
   -5.7187   32.7741   -1.5766 H   0  0  0  0  0  0  0  0  0  0  0  0
   -4.3675   33.5793   -0.7787 H   0  0  0  0  0  0  0  0  0  0  0  0
   -5.4323   38.7525   -4.8247 H   0  0  0  0  0  0  0  0  0  0  0  0
   -3.7456   38.4698   -4.4509 H   0  0  0  0  0  0  0  0  0  0  0  0
   -4.7940   39.1526   -3.2350 H   0  0  0  0  0  0  0  0  0  0  0  0
  1  2  2  0
  1  4  1  0
  1 23  1  0
  2  3  1  0
  2  7  1  0
  3 28  3  0
  4  5  1  0
  4  8  1  0
  5  6  1  0
  5 15  2  0
  6  7  1  0
  6 30  1  0
  7 16  1  0
  7 31  1  6
  8 13  1  0
  8  9  2  0
  9 10  1  0
  9 32  1  0
 10 11  2  0
 10 33  1  0
 11 12  1  0
 11 34  1  0
 12 13  2  0
 12 14  1  0
 13 35  1  0
 14 24  1  6
 14 25  1  0
 14 26  1  0
 16 21  1  0
 16 17  2  0
 17 18  1  0
 17 29  1  0
 18 19  2  0
 18 36  1  0
 19 20  1  0
 19 22  1  0
 20 21  2  0
 20 37  1  0
 21 38  1  0
 22 27  3  0
 23 39  1  6
 23 40  1  0
 23 41  1  0
 30 42  1  6
 30 43  1  0
 30 44  1  0
M  END
