17
     RDKit          3D

 50 52  0  0  1  0  0  0  0  0999 V2000
   -5.0393   34.5377   -2.6086 C   0  0  0  0  0  0  0  0  0  0  0  0
   -4.4940   34.7165   -3.8540 C   0  0  0  0  0  0  0  0  0  0  0  0
   -3.5434   33.7776   -4.4972 C   0  0  0  0  0  0  0  0  0  0  0  0
   -5.7972   35.5591   -2.0294 N   0  0  0  0  0  0  0  0  0  0  0  0
   -5.7818   36.8567   -2.4866 C   0  0  0  0  0  0  0  0  0  0  0  0
   -5.0464   37.0403   -3.6158 N   0  0  0  0  0  0  0  0  0  0  0  0
   -4.8612   35.9910   -4.6378 C   0  0  2  0  0  0  0  0  0  0  0  0
   -6.5334   35.3314   -0.8335 C   0  0  0  0  0  0  0  0  0  0  0  0
   -6.0484   35.7806    0.4023 C   0  0  0  0  0  0  0  0  0  0  0  0
   -6.8171   35.6208    1.5553 C   0  0  0  0  0  0  0  0  0  0  0  0
   -8.0678   35.0218    1.4739 C   0  0  0  0  0  0  0  0  0  0  0  0
   -8.5659   34.5658    0.2497 C   0  0  0  0  0  0  0  0  0  0  0  0
   -7.7772   34.7055   -0.8993 C   0  0  0  0  0  0  0  0  0  0  0  0
   -9.9621   33.9605    0.1590 C   0  0  1  0  0  0  0  0  0  0  0  0
   -6.3813   37.8187   -1.9833 O   0  0  0  0  0  0  0  0  0  0  0  0
   -6.0536   35.8533   -5.6151 C   0  0  0  0  0  0  0  0  0  0  0  0
   -6.0386   36.6227   -6.7740 C   0  0  0  0  0  0  0  0  0  0  0  0
   -7.1015   36.5697   -7.6623 C   0  0  0  0  0  0  0  0  0  0  0  0
   -8.1791   35.7333   -7.3948 C   0  0  0  0  0  0  0  0  0  0  0  0
   -8.1594   34.9041   -6.2715 C   0  0  0  0  0  0  0  0  0  0  0  0
   -7.0972   34.9625   -5.3803 C   0  0  0  0  0  0  0  0  0  0  0  0
   -9.3679   35.7754   -8.2143 C   0  0  0  0  0  0  0  0  0  0  0  0
   -4.8321   33.2997   -1.7053 C   0  0  2  0  0  0  0  0  0  0  0  0
  -10.2458   33.2349    1.2420 F   0  0  0  0  0  0  0  0  0  0  0  0
  -10.8550   34.9424    0.0276 F   0  0  0  0  0  0  0  0  0  0  0  0
  -10.0673   33.1806   -0.9078 F   0  0  0  0  0  0  0  0  0  0  0  0
  -10.3212   35.8281   -8.8557 N   0  0  0  0  0  0  0  0  0  0  0  0
   -4.4814   37.8837   -3.6431 H   0  0  0  0  0  0  0  0  0  0  0  0
   -3.5910   33.8358   -5.8504 O   0  0  0  0  0  0  0  0  0  0  0  0
   -2.7805   33.0345   -3.8749 O   0  0  0  0  0  0  0  0  0  0  0  0
   -2.6699   33.1168   -6.6754 C   0  0  1  0  0  0  0  0  0  0  0  0
   -2.8840   31.5869   -6.6505 C   0  0  1  0  0  0  0  0  0  0  0  0
   -1.7317   30.9088   -7.1207 O   0  0  0  0  0  0  0  0  0  0  0  0
   -4.0159   36.2529   -5.2814 H   0  0  0  0  0  0  0  0  0  0  0  0
   -5.0967   36.2926    0.4654 H   0  0  0  0  0  0  0  0  0  0  0  0
   -6.4413   35.9751    2.5064 H   0  0  0  0  0  0  0  0  0  0  0  0
   -8.6666   34.9254    2.3734 H   0  0  0  0  0  0  0  0  0  0  0  0
   -8.1438   34.3426   -1.8534 H   0  0  0  0  0  0  0  0  0  0  0  0
   -5.2082   37.2800   -6.9944 H   0  0  0  0  0  0  0  0  0  0  0  0
   -7.0937   37.2042   -8.5436 H   0  0  0  0  0  0  0  0  0  0  0  0
   -8.9793   34.2314   -6.0612 H   0  0  0  0  0  0  0  0  0  0  0  0
   -7.1085   34.3233   -4.5046 H   0  0  0  0  0  0  0  0  0  0  0  0
   -4.1661   32.5348   -2.0889 H   0  0  0  0  0  0  0  0  0  0  0  0
   -5.7857   32.8049   -1.5135 H   0  0  0  0  0  0  0  0  0  0  0  0
   -4.4151   33.6016   -0.7450 H   0  0  0  0  0  0  0  0  0  0  0  0
   -2.7787   33.4699   -7.7031 H   0  0  0  0  0  0  0  0  0  0  0  0
   -1.6533   33.3564   -6.3646 H   0  0  0  0  0  0  0  0  0  0  0  0
   -3.0829   31.2289   -5.6367 H   0  0  0  0  0  0  0  0  0  0  0  0
   -3.7410   31.3010   -7.2601 H   0  0  0  0  0  0  0  0  0  0  0  0
   -1.6095   31.0968   -8.0575 H   0  0  0  0  0  0  0  0  0  0  0  0
  1  2  2  0
  1  4  1  0
  1 23  1  0
  2  3  1  0
  2  7  1  0
  3 29  1  0
  3 30  2  0
  4  5  1  0
  4  8  1  0
  5  6  1  0
  5 15  2  0
  6  7  1  0
  6 28  1  0
  7 16  1  0
  7 34  1  6
  8 13  1  0
  8  9  2  0
  9 10  1  0
  9 35  1  0
 10 11  2  0
 10 36  1  0
 11 12  1  0
 11 37  1  0
 12 13  2  0
 12 14  1  0
 13 38  1  0
 14 24  1  1
 14 25  1  0
 14 26  1  0
 16 21  1  0
 16 17  2  0
 17 18  1  0
 17 39  1  0
 18 19  2  0
 18 40  1  0
 19 20  1  0
 19 22  1  0
 20 21  2  0
 20 41  1  0
 21 42  1  0
 22 27  3  0
 23 43  1  6
 23 44  1  0
 23 45  1  0
 29 31  1  0
 31 32  1  0
 31 46  1  6
 31 47  1  0
 32 33  1  0
 32 48  1  1
 32 49  1  0
 33 50  1  0
M  END
