28
     RDKit          3D

 47 49  0  0  1  0  0  0  0  0999 V2000
   -5.0356   34.4967   -2.0309 C   0  0  0  0  0  0  0  0  0  0  0  0
   -4.3955   34.6595   -3.2023 C   0  0  0  0  0  0  0  0  0  0  0  0
   -3.6206   33.6266   -3.8150 C   0  0  0  0  0  0  0  0  0  0  0  0
   -5.7830   35.5342   -1.4810 N   0  0  0  0  0  0  0  0  0  0  0  0
   -5.8028   36.8175   -1.9705 C   0  0  0  0  0  0  0  0  0  0  0  0
   -4.8731   37.0141   -2.9305 N   0  0  0  0  0  0  0  0  0  0  0  0
   -4.5720   35.9739   -3.9438 C   0  0  2  0  0  0  0  0  0  0  0  0
   -6.5853   35.3123   -0.3646 C   0  0  0  0  0  0  0  0  0  0  0  0
   -6.1830   35.7576    0.8951 C   0  0  0  0  0  0  0  0  0  0  0  0
   -7.0510   35.6313    1.9647 C   0  0  0  0  0  0  0  0  0  0  0  0
   -8.2957   35.0295    1.7874 C   0  0  0  0  0  0  0  0  0  0  0  0
   -8.7044   34.5994    0.5211 C   0  0  0  0  0  0  0  0  0  0  0  0
   -7.8336   34.7305   -0.5523 C   0  0  0  0  0  0  0  0  0  0  0  0
  -10.0772   34.0082    0.2883 C   0  0  1  0  0  0  0  0  0  0  0  0
   -6.5472   37.7283   -1.6072 O   0  0  0  0  0  0  0  0  0  0  0  0
   -5.5781   35.9221   -5.0972 C   0  0  0  0  0  0  0  0  0  0  0  0
   -5.4231   36.6765   -6.2799 C   0  0  0  0  0  0  0  0  0  0  0  0
   -6.5006   36.7060   -7.1883 C   0  0  0  0  0  0  0  0  0  0  0  0
   -7.6142   35.8729   -7.0309 C   0  0  0  0  0  0  0  0  0  0  0  0
   -7.6853   35.0294   -5.9318 C   0  0  0  0  0  0  0  0  0  0  0  0
   -6.7036   35.0970   -4.9550 C   0  0  0  0  0  0  0  0  0  0  0  0
   -8.7049   35.8571   -7.9941 C   0  0  0  0  0  0  0  0  0  0  0  0
   -5.0311   33.1595   -1.3132 C   0  0  2  0  0  0  0  0  0  0  0  0
  -10.9442   34.9906    0.0385 F   0  0  0  0  0  0  0  0  0  0  0  0
  -10.0693   33.1998   -0.7659 F   0  0  0  0  0  0  0  0  0  0  0  0
  -10.4642   33.3107    1.3542 F   0  0  0  0  0  0  0  0  0  0  0  0
   -9.5735   35.8342   -8.7579 N   0  0  0  0  0  0  0  0  0  0  0  0
   -2.9684   32.8068   -4.3029 N   0  0  0  0  0  0  0  0  0  0  0  0
   -3.8328   37.4799   -6.7393 S   0  0  1  0  0  0  0  0  0  0  0  0
   -4.2681   37.8179   -2.8318 H   0  0  0  0  0  0  0  0  0  0  0  0
   -4.2181   39.1625   -7.4831 C   0  0  2  0  0  0  0  0  0  0  0  0
   -3.0527   37.8542   -5.5588 O   0  0  0  0  0  0  0  0  0  0  0  0
   -3.2242   36.5896   -7.7324 O   0  0  0  0  0  0  0  0  0  0  0  0
   -3.5843   36.1302   -4.3154 H   0  0  0  0  0  0  0  0  0  0  0  0
   -5.2252   36.2336    1.0389 H   0  0  0  0  0  0  0  0  0  0  0  0
   -6.7395   36.0116    2.9206 H   0  0  0  0  0  0  0  0  0  0  0  0
   -8.9328   34.9156    2.6494 H   0  0  0  0  0  0  0  0  0  0  0  0
   -8.1304   34.4092   -1.5417 H   0  0  0  0  0  0  0  0  0  0  0  0
   -6.4822   37.3791   -8.0324 H   0  0  0  0  0  0  0  0  0  0  0  0
   -8.5298   34.3671   -5.7786 H   0  0  0  0  0  0  0  0  0  0  0  0
   -6.8326   34.4924   -4.0696 H   0  0  0  0  0  0  0  0  0  0  0  0
   -4.5560   32.3612   -1.8802 H   0  0  0  0  0  0  0  0  0  0  0  0
   -6.0499   32.8364   -1.1309 H   0  0  0  0  0  0  0  0  0  0  0  0
   -4.5219   33.2405   -0.3622 H   0  0  0  0  0  0  0  0  0  0  0  0
   -3.2764   39.6260   -7.7732 H   0  0  0  0  0  0  0  0  0  0  0  0
   -4.7359   39.7735   -6.7523 H   0  0  0  0  0  0  0  0  0  0  0  0
   -4.8444   39.0484   -8.3463 H   0  0  0  0  0  0  0  0  0  0  0  0
  1  2  2  0
  1  4  1  0
  1 23  1  0
  2  3  1  0
  2  7  1  0
  3 28  3  0
  4  5  1  0
  4  8  1  0
  5  6  1  0
  5 15  2  0
  6  7  1  0
  6 30  1  0
  7 16  1  0
  7 34  1  6
  8 13  1  0
  8  9  2  0
  9 10  1  0
  9 35  1  0
 10 11  2  0
 10 36  1  0
 11 12  1  0
 11 37  1  0
 12 13  2  0
 12 14  1  0
 13 38  1  0
 14 24  1  6
 14 25  1  0
 14 26  1  0
 16 21  1  0
 16 17  2  0
 17 18  1  0
 29 17  1  1
 18 19  2  0
 18 39  1  0
 19 20  1  0
 19 22  1  0
 20 21  2  0
 20 40  1  0
 21 41  1  0
 22 27  3  0
 23 42  1  6
 23 43  1  0
 23 44  1  0
 29 31  1  0
 29 32  2  0
 29 33  2  0
 31 45  1  6
 31 46  1  0
 31 47  1  0
M  END
