26
     RDKit          3D

 44 46  0  0  1  0  0  0  0  0999 V2000
   -5.0409   34.5401   -2.5478 C   0  0  0  0  0  0  0  0  0  0  0  0
   -4.5576   34.6815   -3.7875 C   0  0  0  0  0  0  0  0  0  0  0  0
   -3.7570   33.7000   -4.4614 C   0  0  0  0  0  0  0  0  0  0  0  0
   -5.7943   35.5656   -1.9588 N   0  0  0  0  0  0  0  0  0  0  0  0
   -5.8236   36.8549   -2.4422 C   0  0  0  0  0  0  0  0  0  0  0  0
   -5.0606   37.0129   -3.5338 N   0  0  0  0  0  0  0  0  0  0  0  0
   -4.8616   35.9473   -4.5385 C   0  0  2  0  0  0  0  0  0  0  0  0
   -6.5258   35.3210   -0.7941 C   0  0  0  0  0  0  0  0  0  0  0  0
   -6.0557   35.7784    0.4408 C   0  0  0  0  0  0  0  0  0  0  0  0
   -6.8207   35.6029    1.5850 C   0  0  0  0  0  0  0  0  0  0  0  0
   -8.0801   35.0146    1.4900 C   0  0  0  0  0  0  0  0  0  0  0  0
   -8.5632   34.5577    0.2568 C   0  0  0  0  0  0  0  0  0  0  0  0
   -7.7575   34.6713   -0.8786 C   0  0  0  0  0  0  0  0  0  0  0  0
   -9.9578   33.9583    0.1549 C   0  0  1  0  0  0  0  0  0  0  0  0
   -6.4485   37.8195   -1.9829 O   0  0  0  0  0  0  0  0  0  0  0  0
   -5.9949   35.8406   -5.5681 C   0  0  0  0  0  0  0  0  0  0  0  0
   -5.9465   36.6381   -6.7150 C   0  0  0  0  0  0  0  0  0  0  0  0
   -7.0219   36.5653   -7.6416 C   0  0  0  0  0  0  0  0  0  0  0  0
   -8.1314   35.7381   -7.4049 C   0  0  0  0  0  0  0  0  0  0  0  0
   -8.1131   34.8892   -6.3034 C   0  0  0  0  0  0  0  0  0  0  0  0
   -7.0610   34.9469   -5.3961 C   0  0  0  0  0  0  0  0  0  0  0  0
   -9.3322   35.7833   -8.2267 C   0  0  0  0  0  0  0  0  0  0  0  0
   -4.7789   33.2842   -1.7275 C   0  0  2  0  0  0  0  0  0  0  0  0
  -10.0646   33.1779   -0.9170 F   0  0  0  0  0  0  0  0  0  0  0  0
  -10.2455   33.2362    1.2367 F   0  0  0  0  0  0  0  0  0  0  0  0
  -10.8486   34.9432    0.0384 F   0  0  0  0  0  0  0  0  0  0  0  0
  -10.2998   35.8332   -8.8656 N   0  0  0  0  0  0  0  0  0  0  0  0
   -3.0893   32.9489   -5.0188 N   0  0  0  0  0  0  0  0  0  0  0  0
   -4.7099   37.5498   -6.9009 C   0  0  1  0  0  0  0  0  0  0  0  0
   -3.8055   36.7998   -7.5481 F   0  0  0  0  0  0  0  0  0  0  0  0
   -5.1022   38.6397   -7.5537 F   0  0  0  0  0  0  0  0  0  0  0  0
   -4.0717   38.1028   -5.8689 F   0  0  0  0  0  0  0  0  0  0  0  0
   -4.5041   37.8578   -3.5919 H   0  0  0  0  0  0  0  0  0  0  0  0
   -3.9263   36.1338   -5.0462 H   0  0  0  0  0  0  0  0  0  0  0  0
   -5.1027   36.2840    0.5024 H   0  0  0  0  0  0  0  0  0  0  0  0
   -6.4442   35.9509    2.5350 H   0  0  0  0  0  0  0  0  0  0  0  0
   -8.6790   34.9108    2.3819 H   0  0  0  0  0  0  0  0  0  0  0  0
   -8.1042   34.3184   -1.8434 H   0  0  0  0  0  0  0  0  0  0  0  0
   -7.0443   37.1617   -8.5476 H   0  0  0  0  0  0  0  0  0  0  0  0
   -8.9410   34.2164   -6.0946 H   0  0  0  0  0  0  0  0  0  0  0  0
   -7.1021   34.3061   -4.5307 H   0  0  0  0  0  0  0  0  0  0  0  0
   -4.2370   32.5247   -2.2917 H   0  0  0  0  0  0  0  0  0  0  0  0
   -5.7137   32.8365   -1.4130 H   0  0  0  0  0  0  0  0  0  0  0  0
   -4.1943   33.5432   -0.8494 H   0  0  0  0  0  0  0  0  0  0  0  0
  1  2  2  0
  1  4  1  0
  1 23  1  0
  2  3  1  0
  2  7  1  0
  3 28  3  0
  4  5  1  0
  4  8  1  0
  5  6  1  0
  5 15  2  0
  6  7  1  0
  6 33  1  0
  7 16  1  0
  7 34  1  6
  8 13  1  0
  8  9  2  0
  9 10  1  0
  9 35  1  0
 10 11  2  0
 10 36  1  0
 11 12  1  0
 11 37  1  0
 12 13  2  0
 12 14  1  0
 13 38  1  0
 14 24  1  6
 14 25  1  0
 14 26  1  0
 16 21  1  0
 16 17  2  0
 17 18  1  0
 17 29  1  0
 18 19  2  0
 18 39  1  0
 19 20  1  0
 19 22  1  0
 20 21  2  0
 20 40  1  0
 21 41  1  0
 22 27  3  0
 23 42  1  6
 23 43  1  0
 23 44  1  0
 29 30  1  6
 29 31  1  0
 29 32  1  0
M  END
