cmpd 5 (1-Butenyl)
     RDKit          3D

 46 48  0  0  1  0  0  0  0  0999 V2000
    0.8286  -10.0171   -2.8649 C   0  0  2  0  0  0  0  0  0  0  0  0
    1.1012   -9.3008   -5.2657 C   0  0  0  0  0  0  0  0  0  0  0  0
    2.9791   -9.2007   -3.6636 C   0  0  0  0  0  0  0  0  0  0  0  0
    3.9261   -8.6657   -4.6001 C   0  0  0  0  0  0  0  0  0  0  0  0
    3.4253   -8.5197   -5.9939 C   0  0  0  0  0  0  0  0  0  0  0  0
    4.0864   -8.0193   -7.2061 C   0  0  0  0  0  0  0  0  0  0  0  0
    2.9657   -8.1125   -8.0472 C   0  0  0  0  0  0  0  0  0  0  0  0
    2.0805   -8.8158   -6.2531 C   0  0  0  0  0  0  0  0  0  0  0  0
    0.5256   -8.7887   -1.9139 C   0  0  2  0  0  0  0  0  0  0  0  0
    0.0593   -9.2936    0.4746 C   0  0  0  0  0  0  0  0  0  0  0  0
   -0.3359   -9.2951   -0.7929 C   0  0  0  0  0  0  0  0  0  0  0  0
    1.6889   -9.4626   -3.9592 N   0  0  0  0  0  0  0  0  0  0  0  0
    1.7897   -8.5308   -7.6114 N   0  0  0  0  0  0  0  0  0  0  0  0
   -0.0747   -9.4181   -5.4525 O   0  0  0  0  0  0  0  0  0  0  0  0
    5.3215   -8.3826   -4.2140 C   0  0  0  0  0  0  0  0  0  0  0  0
    6.4256   -8.5538   -5.0346 C   0  0  0  0  0  0  0  0  0  0  0  0
    7.6951   -8.1507   -4.6416 C   0  0  0  0  0  0  0  0  0  0  0  0
    7.9430   -7.6183   -3.3662 C   0  0  0  0  0  0  0  0  0  0  0  0
    6.8378   -7.4280   -2.5337 C   0  0  0  0  0  0  0  0  0  0  0  0
    5.5388   -7.7685   -2.9419 C   0  0  0  0  0  0  0  0  0  0  0  0
    7.0406   -6.8175   -1.1787 C   0  0  0  0  0  0  0  0  0  0  0  0
    6.7217   -5.6756   -0.8608 O   0  0  0  0  0  0  0  0  0  0  0  0
    7.5863   -7.3776   -0.0987 N   0  0  0  0  0  0  0  0  0  0  0  0
    7.7568   -6.7291    1.1982 C   0  0  1  0  0  0  0  0  0  0  0  0
    8.1097   -8.7384   -0.0222 C   0  0  1  0  0  0  0  0  0  0  0  0
   -0.0941  -10.4663   -3.2362 H   0  0  0  0  0  0  0  0  0  0  0  0
    1.3638  -10.8041   -2.3316 H   0  0  0  0  0  0  0  0  0  0  0  0
    3.2447   -9.4030   -2.6366 H   0  0  0  0  0  0  0  0  0  0  0  0
    5.0879   -7.6676   -7.4071 H   0  0  0  0  0  0  0  0  0  0  0  0
    2.9734   -7.8332   -9.0918 H   0  0  0  0  0  0  0  0  0  0  0  0
   -0.0119   -8.0052   -2.4503 H   0  0  0  0  0  0  0  0  0  0  0  0
    1.4406   -8.3448   -1.5192 H   0  0  0  0  0  0  0  0  0  0  0  0
   -0.5864   -9.6662    1.2568 H   0  0  0  0  0  0  0  0  0  0  0  0
    1.0316   -8.9228    0.7655 H   0  0  0  0  0  0  0  0  0  0  0  0
   -1.3146   -9.6730   -1.0555 H   0  0  0  0  0  0  0  0  0  0  0  0
    0.9016   -8.6285   -8.0860 H   0  0  0  0  0  0  0  0  0  0  0  0
    6.3021   -9.0003   -6.0094 H   0  0  0  0  0  0  0  0  0  0  0  0
    8.5234   -8.2940   -5.3202 H   0  0  0  0  0  0  0  0  0  0  0  0
    8.9392   -7.3383   -3.0551 H   0  0  0  0  0  0  0  0  0  0  0  0
    4.7091   -7.5690   -2.2798 H   0  0  0  0  0  0  0  0  0  0  0  0
    7.3683   -5.7119    1.1496 H   0  0  0  0  0  0  0  0  0  0  0  0
    7.2135   -7.2896    1.9589 H   0  0  0  0  0  0  0  0  0  0  0  0
    8.8160   -6.7017    1.4542 H   0  0  0  0  0  0  0  0  0  0  0  0
    7.9861   -9.2300   -0.9871 H   0  0  0  0  0  0  0  0  0  0  0  0
    9.1681   -8.7066    0.2365 H   0  0  0  0  0  0  0  0  0  0  0  0
    7.5656   -9.2946    0.7412 H   0  0  0  0  0  0  0  0  0  0  0  0
  1  9  1  0
  1 12  1  0
  1 26  1  6
  1 27  1  0
  2  8  1  0
  2 12  1  0
  2 14  2  0
  3  4  2  0
  3 12  1  0
  3 28  1  0
  4  5  1  0
  4 15  1  0
  5  6  1  0
  5  8  2  0
  6  7  2  0
  6 29  1  0
  7 13  1  0
  7 30  1  0
  8 13  1  0
  9 11  1  0
  9 31  1  6
  9 32  1  0
 10 11  2  0
 10 33  1  0
 10 34  1  0
 11 35  1  0
 13 36  1  0
 15 16  2  0
 15 20  1  0
 16 17  1  0
 16 37  1  0
 17 18  2  0
 17 38  1  0
 18 19  1  0
 18 39  1  0
 19 20  2  0
 19 21  1  0
 20 40  1  0
 21 22  2  0
 21 23  1  0
 23 24  1  0
 23 25  1  0
 24 41  1  6
 24 42  1  0
 24 43  1  0
 25 44  1  6
 25 45  1  0
 25 46  1  0
M  END
