cmpd 4 (Crotyl)
     RDKit          3D

 46 48  0  0  1  0  0  0  0  0999 V2000
    0.8286  -10.0171   -2.8649 C   0  0  2  0  0  0  0  0  0  0  0  0
    1.1012   -9.3008   -5.2657 C   0  0  0  0  0  0  0  0  0  0  0  0
    2.9791   -9.2007   -3.6636 C   0  0  0  0  0  0  0  0  0  0  0  0
    3.9261   -8.6657   -4.6001 C   0  0  0  0  0  0  0  0  0  0  0  0
    3.4253   -8.5197   -5.9939 C   0  0  0  0  0  0  0  0  0  0  0  0
    4.0864   -8.0193   -7.2061 C   0  0  0  0  0  0  0  0  0  0  0  0
    2.9657   -8.1125   -8.0472 C   0  0  0  0  0  0  0  0  0  0  0  0
    2.0805   -8.8158   -6.2531 C   0  0  0  0  0  0  0  0  0  0  0  0
    0.5256   -8.7887   -1.9139 C   0  0  0  0  0  0  0  0  0  0  0  0
    0.1709   -8.9243    0.5314 C   0  0  1  0  0  0  0  0  0  0  0  0
   -0.3250   -8.9040   -0.8841 C   0  0  0  0  0  0  0  0  0  0  0  0
    1.6889   -9.4626   -3.9592 N   0  0  0  0  0  0  0  0  0  0  0  0
    1.7897   -8.5308   -7.6114 N   0  0  0  0  0  0  0  0  0  0  0  0
   -0.0747   -9.4181   -5.4525 O   0  0  0  0  0  0  0  0  0  0  0  0
    5.3215   -8.3826   -4.2140 C   0  0  0  0  0  0  0  0  0  0  0  0
    6.4256   -8.5538   -5.0346 C   0  0  0  0  0  0  0  0  0  0  0  0
    7.6951   -8.1507   -4.6416 C   0  0  0  0  0  0  0  0  0  0  0  0
    7.9430   -7.6183   -3.3662 C   0  0  0  0  0  0  0  0  0  0  0  0
    6.8378   -7.4280   -2.5337 C   0  0  0  0  0  0  0  0  0  0  0  0
    5.5388   -7.7685   -2.9419 C   0  0  0  0  0  0  0  0  0  0  0  0
    7.0436   -6.7257   -1.2020 C   0  0  0  0  0  0  0  0  0  0  0  0
    6.4996   -5.5615   -1.1207 O   0  0  0  0  0  0  0  0  0  0  0  0
    7.5554   -7.3137   -0.2001 N   0  0  0  0  0  0  0  0  0  0  0  0
    7.5856   -6.6697    1.1406 C   0  0  1  0  0  0  0  0  0  0  0  0
    7.9907   -8.7314   -0.2107 C   0  0  1  0  0  0  0  0  0  0  0  0
   -0.1085  -10.4149   -3.2543 H   0  0  0  0  0  0  0  0  0  0  0  0
    1.3469  -10.7933   -2.3019 H   0  0  0  0  0  0  0  0  0  0  0  0
    3.2269   -9.4004   -2.6317 H   0  0  0  0  0  0  0  0  0  0  0  0
    5.0877   -7.6676   -7.4075 H   0  0  0  0  0  0  0  0  0  0  0  0
    2.9729   -7.8334   -9.0917 H   0  0  0  0  0  0  0  0  0  0  0  0
    1.0266   -7.8544   -2.1216 H   0  0  0  0  0  0  0  0  0  0  0  0
   -0.6751   -9.0240    1.2114 H   0  0  0  0  0  0  0  0  0  0  0  0
    0.8476   -9.7680    0.6672 H   0  0  0  0  0  0  0  0  0  0  0  0
    0.7007   -7.9958    0.7442 H   0  0  0  0  0  0  0  0  0  0  0  0
   -1.3899   -8.9852   -1.0468 H   0  0  0  0  0  0  0  0  0  0  0  0
    0.9009   -8.6298   -8.0839 H   0  0  0  0  0  0  0  0  0  0  0  0
    6.3021   -8.9995   -6.0098 H   0  0  0  0  0  0  0  0  0  0  0  0
    8.5233   -8.2936   -5.3204 H   0  0  0  0  0  0  0  0  0  0  0  0
    8.9392   -7.3379   -3.0554 H   0  0  0  0  0  0  0  0  0  0  0  0
    4.7102   -7.5666   -2.2793 H   0  0  0  0  0  0  0  0  0  0  0  0
    7.1210   -5.6854    1.0815 H   0  0  0  0  0  0  0  0  0  0  0  0
    7.0387   -7.2875    1.8529 H   0  0  0  0  0  0  0  0  0  0  0  0
    8.6194   -6.5643    1.4698 H   0  0  0  0  0  0  0  0  0  0  0  0
    7.8006   -9.1625   -1.1936 H   0  0  0  0  0  0  0  0  0  0  0  0
    9.0567   -8.7858    0.0100 H   0  0  0  0  0  0  0  0  0  0  0  0
    7.4346   -9.2878    0.5439 H   0  0  0  0  0  0  0  0  0  0  0  0
  1  9  1  0
  1 12  1  0
  1 26  1  6
  1 27  1  0
  2  8  1  0
  2 12  1  0
  2 14  2  0
  3  4  2  0
  3 12  1  0
  3 28  1  0
  4  5  1  0
  4 15  1  0
  5  6  1  0
  5  8  2  0
  6  7  2  0
  6 29  1  0
  7 13  1  0
  7 30  1  0
  8 13  1  0
  9 11  2  0
  9 31  1  0
 10 11  1  0
 10 32  1  1
 10 33  1  0
 10 34  1  0
 11 35  1  0
 13 36  1  0
 15 16  2  0
 15 20  1  0
 16 17  1  0
 16 37  1  0
 17 18  2  0
 17 38  1  0
 18 19  1  0
 18 39  1  0
 19 20  2  0
 19 21  1  0
 20 40  1  0
 21 22  2  0
 21 23  1  0
 23 24  1  0
 23 25  1  0
 24 41  1  6
 24 42  1  0
 24 43  1  0
 25 44  1  6
 25 45  1  0
 25 46  1  0
M  END
