cmpd 9 (methoxyethyl)
     RDKit          3D

 46 48  0  0  1  0  0  0  0  0999 V2000
    0.8286  -10.0171   -2.8649 C   0  0  2  0  0  0  0  0  0  0  0  0
    1.1012   -9.3008   -5.2657 C   0  0  0  0  0  0  0  0  0  0  0  0
    2.9791   -9.2007   -3.6636 C   0  0  0  0  0  0  0  0  0  0  0  0
    3.9261   -8.6657   -4.6001 C   0  0  0  0  0  0  0  0  0  0  0  0
    3.4253   -8.5197   -5.9939 C   0  0  0  0  0  0  0  0  0  0  0  0
    4.0864   -8.0193   -7.2061 C   0  0  0  0  0  0  0  0  0  0  0  0
    2.9657   -8.1125   -8.0472 C   0  0  0  0  0  0  0  0  0  0  0  0
    2.0805   -8.8158   -6.2531 C   0  0  0  0  0  0  0  0  0  0  0  0
    0.5256   -8.7887   -1.9139 C   0  0  2  0  0  0  0  0  0  0  0  0
    0.3113   -9.1614    0.3738 C   0  0  1  0  0  0  0  0  0  0  0  0
   -0.2884   -9.1758   -0.8690 O   0  0  0  0  0  0  0  0  0  0  0  0
    1.6889   -9.4626   -3.9592 N   0  0  0  0  0  0  0  0  0  0  0  0
    1.7897   -8.5308   -7.6114 N   0  0  0  0  0  0  0  0  0  0  0  0
   -0.0747   -9.4181   -5.4525 O   0  0  0  0  0  0  0  0  0  0  0  0
    5.3215   -8.3826   -4.2140 C   0  0  0  0  0  0  0  0  0  0  0  0
    6.4256   -8.5538   -5.0346 C   0  0  0  0  0  0  0  0  0  0  0  0
    7.6951   -8.1507   -4.6416 C   0  0  0  0  0  0  0  0  0  0  0  0
    7.9430   -7.6183   -3.3662 C   0  0  0  0  0  0  0  0  0  0  0  0
    6.8378   -7.4280   -2.5337 C   0  0  0  0  0  0  0  0  0  0  0  0
    5.5388   -7.7685   -2.9419 C   0  0  0  0  0  0  0  0  0  0  0  0
    7.0436   -6.7257   -1.2020 C   0  0  0  0  0  0  0  0  0  0  0  0
    6.4996   -5.5615   -1.1207 O   0  0  0  0  0  0  0  0  0  0  0  0
    7.5554   -7.3137   -0.2001 N   0  0  0  0  0  0  0  0  0  0  0  0
    7.5856   -6.6697    1.1406 C   0  0  1  0  0  0  0  0  0  0  0  0
    7.9907   -8.7314   -0.2107 C   0  0  1  0  0  0  0  0  0  0  0  0
   -0.0987  -10.4604   -3.2315 H   0  0  0  0  0  0  0  0  0  0  0  0
    1.3584  -10.8048   -2.3280 H   0  0  0  0  0  0  0  0  0  0  0  0
    3.2440   -9.3999   -2.6361 H   0  0  0  0  0  0  0  0  0  0  0  0
    5.0874   -7.6663   -7.4069 H   0  0  0  0  0  0  0  0  0  0  0  0
    2.9732   -7.8318   -9.0914 H   0  0  0  0  0  0  0  0  0  0  0  0
    0.0093   -7.9928   -2.4523 H   0  0  0  0  0  0  0  0  0  0  0  0
    1.4327   -8.3666   -1.4805 H   0  0  0  0  0  0  0  0  0  0  0  0
   -0.4080   -9.4807    1.1280 H   0  0  0  0  0  0  0  0  0  0  0  0
    1.1635   -9.8409    0.3739 H   0  0  0  0  0  0  0  0  0  0  0  0
    0.6520   -8.1513    0.6012 H   0  0  0  0  0  0  0  0  0  0  0  0
    0.9010   -8.6257   -8.0852 H   0  0  0  0  0  0  0  0  0  0  0  0
    6.3015   -8.9977   -6.0105 H   0  0  0  0  0  0  0  0  0  0  0  0
    8.5218   -8.2870   -5.3237 H   0  0  0  0  0  0  0  0  0  0  0  0
    8.9373   -7.3183   -3.0671 H   0  0  0  0  0  0  0  0  0  0  0  0
    4.7058   -7.5462   -2.2901 H   0  0  0  0  0  0  0  0  0  0  0  0
    8.3278   -7.1227    1.7978 H   0  0  0  0  0  0  0  0  0  0  0  0
    7.8353   -5.6091    1.0698 H   0  0  0  0  0  0  0  0  0  0  0  0
    6.6092   -6.7514    1.6195 H   0  0  0  0  0  0  0  0  0  0  0  0
    8.8927   -8.8475   -0.8127 H   0  0  0  0  0  0  0  0  0  0  0  0
    8.2094   -9.1087    0.7884 H   0  0  0  0  0  0  0  0  0  0  0  0
    7.2175   -9.3768   -0.6314 H   0  0  0  0  0  0  0  0  0  0  0  0
  1  9  1  0
  1 12  1  0
  1 26  1  6
  1 27  1  0
  2  8  1  0
  2 12  1  0
  2 14  2  0
  3  4  2  0
  3 12  1  0
  3 28  1  0
  4  5  1  0
  4 15  1  0
  5  6  1  0
  5  8  2  0
  6  7  2  0
  6 29  1  0
  7 13  1  0
  7 30  1  0
  8 13  1  0
  9 11  1  0
  9 31  1  6
  9 32  1  0
 10 11  1  0
 10 33  1  1
 10 34  1  0
 10 35  1  0
 13 36  1  0
 15 16  2  0
 15 20  1  0
 16 17  1  0
 16 37  1  0
 17 18  2  0
 17 38  1  0
 18 19  1  0
 18 39  1  0
 19 20  2  0
 19 21  1  0
 20 40  1  0
 21 22  2  0
 21 23  1  0
 23 24  1  0
 23 25  1  0
 24 41  1  1
 24 42  1  0
 24 43  1  0
 25 44  1  6
 25 45  1  0
 25 46  1  0
M  END
