MT
     RDKit          3D

 13 13  0  0  1  0  0  0  0  0999 V2000
   23.9318   18.3686   27.8365 S   0  0  0  0  0  0  0  0  0  0  0  0
   23.4547   17.2971   29.1853 C   0  0  0  0  0  0  0  0  0  0  0  0
   24.3543   16.5411   29.6702 N   0  0  0  0  0  0  0  0  0  0  0  0
   25.6319   16.6970   29.0268 C   0  0  2  0  0  0  0  0  0  0  0  0
   25.5368   17.5703   27.7773 C   0  0  2  0  0  0  0  0  0  0  0  0
   22.0074   17.3032   29.6873 C   0  0  2  0  0  0  0  0  0  0  0  0
   26.0171   15.7086   28.7736 H   0  0  0  0  0  0  0  0  0  0  0  0
   26.3098   17.1475   29.7521 H   0  0  0  0  0  0  0  0  0  0  0  0
   26.3120   18.3324   27.7466 H   0  0  0  0  0  0  0  0  0  0  0  0
   25.5886   16.9817   26.8608 H   0  0  0  0  0  0  0  0  0  0  0  0
   21.7836   16.3000   30.0549 H   0  0  0  0  0  0  0  0  0  0  0  0
   21.3246   17.5772   28.8831 H   0  0  0  0  0  0  0  0  0  0  0  0
   21.9104   18.0183   30.5042 H   0  0  0  0  0  0  0  0  0  0  0  0
  1  2  1  0
  1  5  1  0
  2  3  2  0
  2  6  1  0
  3  4  1  0
  4  5  1  0
  4  7  1  6
  4  8  1  0
  5  9  1  6
  5 10  1  0
  6 11  1  1
  6 12  1  0
  6 13  1  0
M  END
