12 docked
     RDKit          3D

 56 61  0  0  1  0  0  0  0  0999 V2000
    6.0665    6.9314   17.0056 C   0  0  0  0  0  0  0  0  0  0  0  0
    7.2732    7.6713   17.1596 C   0  0  0  0  0  0  0  0  0  0  0  0
    7.3260    8.7431   18.0915 C   0  0  0  0  0  0  0  0  0  0  0  0
    4.9007    7.2456   17.7412 C   0  0  0  0  0  0  0  0  0  0  0  0
    4.9607    8.3175   18.6511 C   0  0  0  0  0  0  0  0  0  0  0  0
    6.1352    9.0026   18.7780 C   0  0  0  0  0  0  0  0  0  0  0  0
    5.8961   10.0236   19.6638 N   0  0  0  0  0  0  0  0  0  0  0  0
    4.5956    9.9847   20.1063 N   0  0  0  0  0  0  0  0  0  0  0  0
    4.0085    8.9377   19.4973 C   0  0  0  0  0  0  0  0  0  0  0  0
    2.5978    8.5807   19.6963 C   0  0  0  0  0  0  0  0  0  0  0  0
    1.7087    9.3336   20.4308 N   0  0  0  0  0  0  0  0  0  0  0  0
    1.9460    7.4709   19.2387 C   0  0  0  0  0  0  0  0  0  0  0  0
    0.6078    7.5499   19.7122 C   0  0  0  0  0  0  0  0  0  0  0  0
    0.4592    8.7533   20.4658 C   0  0  0  0  0  0  0  0  0  0  0  0
   -0.7595    9.1197   21.0633 C   0  0  0  0  0  0  0  0  0  0  0  0
   -1.8676    8.2629   20.9373 C   0  0  0  0  0  0  0  0  0  0  0  0
   -1.7459    7.0527   20.2218 C   0  0  0  0  0  0  0  0  0  0  0  0
   -0.5229    6.7127   19.6066 C   0  0  0  0  0  0  0  0  0  0  0  0
   -2.9059    6.0762   20.1617 C   0  0  2  0  0  0  0  0  0  0  0  0
   -3.1531    5.4034   21.4617 N   0  0  1  0  0  0  0  0  0  0  0  0
   -4.3721    4.4593   21.3521 C   0  0  2  0  0  0  0  0  0  0  0  0
   -4.5375    3.6793   22.6733 C   0  0  2  0  0  0  0  0  0  0  0  0
   -3.3255    2.9984   23.0120 O   0  0  0  0  0  0  0  0  0  0  0  0
   -2.1988    3.8577   23.2103 C   0  0  2  0  0  0  0  0  0  0  0  0
   -1.8852    4.6491   21.9231 C   0  0  2  0  0  0  0  0  0  0  0  0
    8.4664    7.2998   16.3300 C   0  0  0  0  0  0  0  0  0  0  0  0
    9.7147    7.8948   16.3376 C   0  0  0  0  0  0  0  0  0  0  0  0
   10.4460    7.1983   15.4119 N   0  0  0  0  0  0  0  0  0  0  0  0
    9.7428    6.2128   14.8287 N   0  0  0  0  0  0  0  0  0  0  0  0
    8.5515    6.2749   15.3822 C   0  0  0  0  0  0  0  0  0  0  0  0
   11.8395    7.4805   15.0803 C   0  0  1  0  0  0  0  0  0  0  0  0
    6.0362    6.1047   16.3074 H   0  0  0  0  0  0  0  0  0  0  0  0
    8.2376    9.3049   18.2416 H   0  0  0  0  0  0  0  0  0  0  0  0
    3.9941    6.6729   17.6013 H   0  0  0  0  0  0  0  0  0  0  0  0
    6.5619   10.7286   19.9732 H   0  0  0  0  0  0  0  0  0  0  0  0
    1.9672   10.2068   20.8820 H   0  0  0  0  0  0  0  0  0  0  0  0
    2.3889    6.6934   18.6316 H   0  0  0  0  0  0  0  0  0  0  0  0
   -0.8698   10.0417   21.6174 H   0  0  0  0  0  0  0  0  0  0  0  0
   -2.8079    8.5442   21.3943 H   0  0  0  0  0  0  0  0  0  0  0  0
   -0.4725    5.7883   19.0481 H   0  0  0  0  0  0  0  0  0  0  0  0
   -2.6939    5.3054   19.4208 H   0  0  0  0  0  0  0  0  0  0  0  0
   -3.8150    6.6087   19.8821 H   0  0  0  0  0  0  0  0  0  0  0  0
   -3.3582    6.1570   22.1044 H   0  0  0  0  0  0  0  0  0  0  0  0
   -4.1724    3.7906   20.5123 H   0  0  0  0  0  0  0  0  0  0  0  0
   -5.2440    5.0709   21.1115 H   0  0  0  0  0  0  0  0  0  0  0  0
   -5.3426    2.9488   22.5750 H   0  0  0  0  0  0  0  0  0  0  0  0
   -4.8333    4.3473   23.4859 H   0  0  0  0  0  0  0  0  0  0  0  0
   -1.3347    3.2546   23.4952 H   0  0  0  0  0  0  0  0  0  0  0  0
   -2.3846    4.5341   24.0481 H   0  0  0  0  0  0  0  0  0  0  0  0
   -1.0936    5.3877   22.0645 H   0  0  0  0  0  0  0  0  0  0  0  0
   -1.6021    3.9868   21.1024 H   0  0  0  0  0  0  0  0  0  0  0  0
   10.1406    8.7205   16.8944 H   0  0  0  0  0  0  0  0  0  0  0  0
    7.7529    5.5939   15.1100 H   0  0  0  0  0  0  0  0  0  0  0  0
   12.1928    8.3197   15.6795 H   0  0  0  0  0  0  0  0  0  0  0  0
   12.4484    6.6015   15.2914 H   0  0  0  0  0  0  0  0  0  0  0  0
   11.9177    7.7311   14.0223 H   0  0  0  0  0  0  0  0  0  0  0  0
  1  2  2  0
  1  4  1  0
  1 32  1  0
  2  3  1  0
  2 26  1  0
  3  6  2  0
  3 33  1  0
  4  5  2  0
  4 34  1  0
  5  6  1  0
  5  9  1  0
  6  7  1  0
  7  8  1  0
  7 35  1  0
  8  9  2  0
  9 10  1  0
 10 11  1  0
 10 12  2  0
 11 14  1  0
 11 36  1  0
 12 13  1  0
 12 37  1  0
 13 14  2  0
 13 18  1  0
 14 15  1  0
 15 16  2  0
 15 38  1  0
 16 17  1  0
 16 39  1  0
 17 18  2  0
 17 19  1  0
 18 40  1  0
 19 20  1  0
 19 41  1  6
 19 42  1  0
 20 21  1  0
 20 25  1  0
 20 43  1  1
 21 22  1  0
 21 44  1  6
 21 45  1  0
 22 23  1  0
 22 46  1  6
 22 47  1  0
 23 24  1  0
 24 25  1  0
 24 48  1  1
 24 49  1  0
 25 50  1  1
 25 51  1  0
 26 30  1  0
 26 27  2  0
 27 28  1  0
 27 52  1  0
 28 29  1  0
 28 31  1  0
 29 30  2  0
 30 53  1  0
 31 54  1  1
 31 55  1  0
 31 56  1  0
M  CHG  1  20   1
M  END
