14 docked
     RDKit          3D

 54 59  0  0  1  0  0  0  0  0999 V2000
    6.0755    6.9292   17.0102 C   0  0  0  0  0  0  0  0  0  0  0  0
    7.2509    7.6676   17.1796 C   0  0  0  0  0  0  0  0  0  0  0  0
    7.3187    8.7243   18.0919 C   0  0  0  0  0  0  0  0  0  0  0  0
    4.9242    7.2308   17.7298 C   0  0  0  0  0  0  0  0  0  0  0  0
    4.9507    8.3013   18.6297 C   0  0  0  0  0  0  0  0  0  0  0  0
    6.1532    9.0286   18.7844 C   0  0  0  0  0  0  0  0  0  0  0  0
    5.8666   10.0182   19.6830 N   0  0  0  0  0  0  0  0  0  0  0  0
    4.5916    9.9576   20.1109 N   0  0  0  0  0  0  0  0  0  0  0  0
    4.0149    8.9464   19.5036 C   0  0  0  0  0  0  0  0  0  0  0  0
    2.6070    8.5829   19.7038 C   0  0  0  0  0  0  0  0  0  0  0  0
    1.7103    9.3327   20.4352 N   0  0  0  0  0  0  0  0  0  0  0  0
    1.9157    7.4742   19.2507 C   0  0  0  0  0  0  0  0  0  0  0  0
    0.5772    7.5442   19.7222 C   0  0  0  0  0  0  0  0  0  0  0  0
    0.4600    8.7453   20.4658 C   0  0  0  0  0  0  0  0  0  0  0  0
   -0.7469    9.1341   21.0647 C   0  0  0  0  0  0  0  0  0  0  0  0
   -1.8330    8.2660   20.9206 C   0  0  0  0  0  0  0  0  0  0  0  0
   -1.7240    7.0671   20.2125 C   0  0  0  0  0  0  0  0  0  0  0  0
   -0.5277    6.7034   19.5996 C   0  0  0  0  0  0  0  0  0  0  0  0
   -2.8920    6.1049   20.1325 C   0  0  2  0  0  0  0  0  0  0  0  0
   -3.1674    5.4157   21.4892 N   0  0  1  0  0  0  0  0  0  0  0  0
   -4.3936    4.4842   21.3729 C   0  0  1  0  0  0  0  0  0  0  0  0
   -4.7037    3.9188   22.7695 C   0  0  2  0  0  0  0  0  0  0  0  0
   -3.4914    3.1859   23.3717 C   0  0  2  0  0  0  0  0  0  0  0  0
   -2.2618    4.1069   23.4109 C   0  0  1  0  0  0  0  0  0  0  0  0
   -1.9279    4.6457   22.0117 C   0  0  2  0  0  0  0  0  0  0  0  0
    8.4503    7.3539   16.3747 C   0  0  0  0  0  0  0  0  0  0  0  0
    9.3916    8.2926   15.9261 C   0  0  0  0  0  0  0  0  0  0  0  0
   10.4431    7.8896   15.2682 N   0  0  0  0  0  0  0  0  0  0  0  0
   10.2761    6.2156   15.0320 S   0  0  0  0  0  0  0  0  0  0  0  0
    8.8285    6.0938   15.9429 C   0  0  0  0  0  0  0  0  0  0  0  0
    6.0293    6.1236   16.2913 H   0  0  0  0  0  0  0  0  0  0  0  0
    8.2186    9.3012   18.2506 H   0  0  0  0  0  0  0  0  0  0  0  0
    4.0225    6.6722   17.5484 H   0  0  0  0  0  0  0  0  0  0  0  0
    6.5047   10.7504   19.9868 H   0  0  0  0  0  0  0  0  0  0  0  0
    1.9644   10.2128   20.8549 H   0  0  0  0  0  0  0  0  0  0  0  0
    2.3117    6.6598   18.6692 H   0  0  0  0  0  0  0  0  0  0  0  0
   -0.8440   10.0512   21.6259 H   0  0  0  0  0  0  0  0  0  0  0  0
   -2.7743    8.5190   21.3932 H   0  0  0  0  0  0  0  0  0  0  0  0
   -0.4398    5.7735   19.0574 H   0  0  0  0  0  0  0  0  0  0  0  0
   -2.7228    5.3084   19.4003 H   0  0  0  0  0  0  0  0  0  0  0  0
   -3.8111    6.6304   19.8638 H   0  0  0  0  0  0  0  0  0  0  0  0
   -3.3726    6.1567   22.1466 H   0  0  0  0  0  0  0  0  0  0  0  0
   -5.2228    5.0961   21.0110 H   0  0  0  0  0  0  0  0  0  0  0  0
   -4.1508    3.7020   20.6483 H   0  0  0  0  0  0  0  0  0  0  0  0
   -5.5518    3.2395   22.6914 H   0  0  0  0  0  0  0  0  0  0  0  0
   -5.0097    4.7269   23.4377 H   0  0  0  0  0  0  0  0  0  0  0  0
   -3.2638    2.2969   22.7788 H   0  0  0  0  0  0  0  0  0  0  0  0
   -3.7252    2.8309   24.3763 H   0  0  0  0  0  0  0  0  0  0  0  0
   -2.4515    4.9405   24.0914 H   0  0  0  0  0  0  0  0  0  0  0  0
   -1.3963    3.5735   23.8044 H   0  0  0  0  0  0  0  0  0  0  0  0
   -1.1015    5.3553   22.0837 H   0  0  0  0  0  0  0  0  0  0  0  0
   -1.6855    3.8558   21.2952 H   0  0  0  0  0  0  0  0  0  0  0  0
    9.3288    9.3540   16.1051 H   0  0  0  0  0  0  0  0  0  0  0  0
    8.3536    5.1340   16.0954 H   0  0  0  0  0  0  0  0  0  0  0  0
  1  2  2  0
  1  4  1  0
  1 31  1  0
  2  3  1  0
  2 26  1  0
  3  6  2  0
  3 32  1  0
  4  5  2  0
  4 33  1  0
  5  6  1  0
  5  9  1  0
  6  7  1  0
  7  8  1  0
  7 34  1  0
  8  9  2  0
  9 10  1  0
 10 11  1  0
 10 12  2  0
 11 14  1  0
 11 35  1  0
 12 13  1  0
 12 36  1  0
 13 14  2  0
 13 18  1  0
 14 15  1  0
 15 16  2  0
 15 37  1  0
 16 17  1  0
 16 38  1  0
 17 18  2  0
 17 19  1  0
 18 39  1  0
 19 20  1  0
 19 40  1  6
 19 41  1  0
 20 21  1  0
 20 25  1  0
 20 42  1  1
 21 22  1  0
 21 43  1  6
 21 44  1  0
 22 23  1  0
 22 45  1  6
 22 46  1  0
 23 24  1  0
 23 47  1  6
 23 48  1  0
 24 25  1  0
 24 49  1  1
 24 50  1  0
 25 51  1  1
 25 52  1  0
 26 27  1  0
 26 30  2  0
 27 28  2  0
 27 53  1  0
 28 29  1  0
 29 30  1  0
 30 54  1  0
M  CHG  1  20   1
M  END
