18 docked
     RDKit          3D

 55 60  0  0  1  0  0  0  0  0999 V2000
    6.0875    6.9353   17.0040 C   0  0  0  0  0  0  0  0  0  0  0  0
    7.2705    7.6583   17.1663 C   0  0  0  0  0  0  0  0  0  0  0  0
    7.3305    8.7274   18.0909 C   0  0  0  0  0  0  0  0  0  0  0  0
    4.9299    7.2384   17.7209 C   0  0  0  0  0  0  0  0  0  0  0  0
    4.9565    8.3069   18.6321 C   0  0  0  0  0  0  0  0  0  0  0  0
    6.1547    9.0205   18.7828 C   0  0  0  0  0  0  0  0  0  0  0  0
    5.8638   10.0208   19.6852 N   0  0  0  0  0  0  0  0  0  0  0  0
    4.5858    9.9461   20.1115 N   0  0  0  0  0  0  0  0  0  0  0  0
    4.0105    8.9382   19.4985 C   0  0  0  0  0  0  0  0  0  0  0  0
    2.6053    8.5833   19.7031 C   0  0  0  0  0  0  0  0  0  0  0  0
    1.7131    9.3315   20.4364 N   0  0  0  0  0  0  0  0  0  0  0  0
    1.9266    7.4762   19.2492 C   0  0  0  0  0  0  0  0  0  0  0  0
    0.5908    7.5466   19.7190 C   0  0  0  0  0  0  0  0  0  0  0  0
    0.4622    8.7493   20.4684 C   0  0  0  0  0  0  0  0  0  0  0  0
   -0.7450    9.1314   21.0628 C   0  0  0  0  0  0  0  0  0  0  0  0
   -1.8345    8.2655   20.9177 C   0  0  0  0  0  0  0  0  0  0  0  0
   -1.7299    7.0581   20.2104 C   0  0  0  0  0  0  0  0  0  0  0  0
   -0.5269    6.7070   19.5982 C   0  0  0  0  0  0  0  0  0  0  0  0
   -2.9019    6.0961   20.1436 C   0  0  1  0  0  0  0  0  0  0  0  0
   -3.1667    5.4183   21.4901 N   0  0  1  0  0  0  0  0  0  0  0  0
   -4.3814    4.4953   21.3708 C   0  0  1  0  0  0  0  0  0  0  0  0
   -4.7026    3.9191   22.7649 C   0  0  1  0  0  0  0  0  0  0  0  0
   -3.4917    3.1866   23.3730 C   0  0  1  0  0  0  0  0  0  0  0  0
   -2.2604    4.1071   23.4057 C   0  0  1  0  0  0  0  0  0  0  0  0
   -1.9368    4.6540   22.0042 C   0  0  1  0  0  0  0  0  0  0  0  0
    8.4239    7.3424   16.3931 N   0  0  0  0  0  0  0  0  0  0  0  0
    8.6535    6.2069   15.6403 C   0  0  0  0  0  0  0  0  0  0  0  0
    9.9046    6.3566   15.0928 C   0  0  0  0  0  0  0  0  0  0  0  0
   10.3595    7.5930   15.5678 C   0  0  0  0  0  0  0  0  0  0  0  0
    9.4667    8.1936   16.3158 N   0  0  0  0  0  0  0  0  0  0  0  0
    6.0225    6.1204   16.2837 H   0  0  0  0  0  0  0  0  0  0  0  0
    8.2259    9.3055   18.2517 H   0  0  0  0  0  0  0  0  0  0  0  0
    4.0327    6.6843   17.5406 H   0  0  0  0  0  0  0  0  0  0  0  0
    6.4927   10.7582   19.9975 H   0  0  0  0  0  0  0  0  0  0  0  0
    1.9650   10.2154   20.8541 H   0  0  0  0  0  0  0  0  0  0  0  0
    2.3143    6.6689   18.6667 H   0  0  0  0  0  0  0  0  0  0  0  0
   -0.8409   10.0509   21.6274 H   0  0  0  0  0  0  0  0  0  0  0  0
   -2.7696    8.5193   21.3924 H   0  0  0  0  0  0  0  0  0  0  0  0
   -0.4417    5.7706   19.0525 H   0  0  0  0  0  0  0  0  0  0  0  0
   -3.8067    6.6305   19.8661 H   0  0  0  0  0  0  0  0  0  0  0  0
   -2.7253    5.3128   19.4087 H   0  0  0  0  0  0  0  0  0  0  0  0
   -3.3710    6.1443   22.1405 H   0  0  0  0  0  0  0  0  0  0  0  0
   -5.2215    5.0892   21.0120 H   0  0  0  0  0  0  0  0  0  0  0  0
   -4.1562    3.7096   20.6499 H   0  0  0  0  0  0  0  0  0  0  0  0
   -5.0134    4.7242   23.4345 H   0  0  0  0  0  0  0  0  0  0  0  0
   -5.5571    3.2351   22.6971 H   0  0  0  0  0  0  0  0  0  0  0  0
   -3.7256    2.8306   24.3770 H   0  0  0  0  0  0  0  0  0  0  0  0
   -3.2645    2.2972   22.7810 H   0  0  0  0  0  0  0  0  0  0  0  0
   -2.4449    4.9370   24.0911 H   0  0  0  0  0  0  0  0  0  0  0  0
   -1.3944    3.5691   23.8099 H   0  0  0  0  0  0  0  0  0  0  0  0
   -1.6840    3.8646   21.2990 H   0  0  0  0  0  0  0  0  0  0  0  0
   -1.1051    5.3491   22.0834 H   0  0  0  0  0  0  0  0  0  0  0  0
    7.9280    5.4160   15.5449 H   0  0  0  0  0  0  0  0  0  0  0  0
   10.4094    5.6782   14.4261 H   0  0  0  0  0  0  0  0  0  0  0  0
   11.3148    8.0631   15.3579 H   0  0  0  0  0  0  0  0  0  0  0  0
  1  2  2  0
  1  4  1  0
  1 31  1  0
  2  3  1  0
  2 26  1  0
  3  6  2  0
  3 32  1  0
  4  5  2  0
  4 33  1  0
  5  6  1  0
  5  9  1  0
  6  7  1  0
  7  8  1  0
  7 34  1  0
  8  9  2  0
  9 10  1  0
 10 11  1  0
 10 12  2  0
 11 14  1  0
 11 35  1  0
 12 13  1  0
 12 36  1  0
 13 14  2  0
 13 18  1  0
 14 15  1  0
 15 16  2  0
 15 37  1  0
 16 17  1  0
 16 38  1  0
 17 18  2  0
 17 19  1  0
 18 39  1  0
 19 20  1  0
 19 40  1  6
 19 41  1  0
 20 21  1  0
 20 25  1  0
 20 42  1  1
 21 22  1  0
 21 43  1  6
 21 44  1  0
 22 23  1  0
 22 45  1  1
 22 46  1  0
 23 24  1  0
 23 47  1  1
 23 48  1  0
 24 25  1  0
 24 49  1  1
 24 50  1  0
 25 51  1  6
 25 52  1  0
 26 27  1  0
 26 30  1  0
 27 28  2  0
 27 53  1  0
 28 29  1  0
 28 54  1  0
 29 30  2  0
 29 55  1  0
M  CHG  1  20   1
M  END
