15 docked
     RDKit          3D

 54 59  0  0  1  0  0  0  0  0999 V2000
    6.0745    6.9379   17.0084 C   0  0  0  0  0  0  0  0  0  0  0  0
    7.2684    7.6656   17.1642 C   0  0  0  0  0  0  0  0  0  0  0  0
    7.3251    8.7241   18.0862 C   0  0  0  0  0  0  0  0  0  0  0  0
    4.9216    7.2372   17.7319 C   0  0  0  0  0  0  0  0  0  0  0  0
    4.9521    8.3053   18.6315 C   0  0  0  0  0  0  0  0  0  0  0  0
    6.1560    9.0257   18.7800 C   0  0  0  0  0  0  0  0  0  0  0  0
    5.8761   10.0179   19.6753 N   0  0  0  0  0  0  0  0  0  0  0  0
    4.5982    9.9687   20.1046 N   0  0  0  0  0  0  0  0  0  0  0  0
    4.0180    8.9515   19.5046 C   0  0  0  0  0  0  0  0  0  0  0  0
    2.6084    8.5848   19.7015 C   0  0  0  0  0  0  0  0  0  0  0  0
    1.7090    9.3335   20.4327 N   0  0  0  0  0  0  0  0  0  0  0  0
    1.9181    7.4720   19.2467 C   0  0  0  0  0  0  0  0  0  0  0  0
    0.5786    7.5449   19.7208 C   0  0  0  0  0  0  0  0  0  0  0  0
    0.4578    8.7443   20.4639 C   0  0  0  0  0  0  0  0  0  0  0  0
   -0.7523    9.1278   21.0643 C   0  0  0  0  0  0  0  0  0  0  0  0
   -1.8429    8.2629   20.9269 C   0  0  0  0  0  0  0  0  0  0  0  0
   -1.7254    7.0659   20.2170 C   0  0  0  0  0  0  0  0  0  0  0  0
   -0.5273    6.7065   19.6033 C   0  0  0  0  0  0  0  0  0  0  0  0
   -2.8897    6.1035   20.1300 C   0  0  1  0  0  0  0  0  0  0  0  0
   -3.1651    5.4135   21.4846 N   0  0  1  0  0  0  0  0  0  0  0  0
   -4.3888    4.4849   21.3785 C   0  0  1  0  0  0  0  0  0  0  0  0
   -4.6983    3.9215   22.7710 C   0  0  1  0  0  0  0  0  0  0  0  0
   -3.4909    3.1848   23.3702 C   0  0  1  0  0  0  0  0  0  0  0  0
   -2.2679    4.1095   23.4092 C   0  0  1  0  0  0  0  0  0  0  0  0
   -1.9329    4.6458   22.0142 C   0  0  1  0  0  0  0  0  0  0  0  0
    8.4812    7.3182   16.3411 C   0  0  0  0  0  0  0  0  0  0  0  0
    9.5639    8.0667   16.2225 N   0  0  0  0  0  0  0  0  0  0  0  0
   10.4813    7.5118   15.4496 C   0  0  0  0  0  0  0  0  0  0  0  0
   10.1454    6.2640   14.9500 C   0  0  0  0  0  0  0  0  0  0  0  0
    8.5529    5.8286   15.4402 S   0  0  0  0  0  0  0  0  0  0  0  0
    6.0146    6.1242   16.3011 H   0  0  0  0  0  0  0  0  0  0  0  0
    8.2157    9.3108   18.2647 H   0  0  0  0  0  0  0  0  0  0  0  0
    4.0139    6.6889   17.5569 H   0  0  0  0  0  0  0  0  0  0  0  0
    6.5311   10.7377   19.9681 H   0  0  0  0  0  0  0  0  0  0  0  0
    1.9638   10.2114   20.8580 H   0  0  0  0  0  0  0  0  0  0  0  0
    2.3054    6.6494   18.6658 H   0  0  0  0  0  0  0  0  0  0  0  0
   -0.8437   10.0425   21.6252 H   0  0  0  0  0  0  0  0  0  0  0  0
   -2.7863    8.5177   21.4027 H   0  0  0  0  0  0  0  0  0  0  0  0
   -0.4370    5.7796   19.0606 H   0  0  0  0  0  0  0  0  0  0  0  0
   -3.8089    6.6272   19.8610 H   0  0  0  0  0  0  0  0  0  0  0  0
   -2.7215    5.3117   19.3938 H   0  0  0  0  0  0  0  0  0  0  0  0
   -3.3713    6.1538   22.1414 H   0  0  0  0  0  0  0  0  0  0  0  0
   -5.2128    5.0936   21.0121 H   0  0  0  0  0  0  0  0  0  0  0  0
   -4.1504    3.7042   20.6574 H   0  0  0  0  0  0  0  0  0  0  0  0
   -5.0045    4.7272   23.4397 H   0  0  0  0  0  0  0  0  0  0  0  0
   -5.5446    3.2457   22.6835 H   0  0  0  0  0  0  0  0  0  0  0  0
   -3.7249    2.8320   24.3752 H   0  0  0  0  0  0  0  0  0  0  0  0
   -3.2628    2.2968   22.7758 H   0  0  0  0  0  0  0  0  0  0  0  0
   -2.4587    4.9409   24.0898 H   0  0  0  0  0  0  0  0  0  0  0  0
   -1.4005    3.5806   23.7958 H   0  0  0  0  0  0  0  0  0  0  0  0
   -1.6894    3.8568   21.3027 H   0  0  0  0  0  0  0  0  0  0  0  0
   -1.1070    5.3513   22.0812 H   0  0  0  0  0  0  0  0  0  0  0  0
   11.4216    8.0180   15.2504 H   0  0  0  0  0  0  0  0  0  0  0  0
   10.6849    5.6499   14.2391 H   0  0  0  0  0  0  0  0  0  0  0  0
  1  2  2  0
  1  4  1  0
  1 31  1  0
  2  3  1  0
  2 26  1  0
  3  6  2  0
  3 32  1  0
  4  5  2  0
  4 33  1  0
  5  6  1  0
  5  9  1  0
  6  7  1  0
  7  8  1  0
  7 34  1  0
  8  9  2  0
  9 10  1  0
 10 11  1  0
 10 12  2  0
 11 14  1  0
 11 35  1  0
 12 13  1  0
 12 36  1  0
 13 14  2  0
 13 18  1  0
 14 15  1  0
 15 16  2  0
 15 37  1  0
 16 17  1  0
 16 38  1  0
 17 18  2  0
 17 19  1  0
 18 39  1  0
 19 20  1  0
 19 40  1  6
 19 41  1  0
 20 21  1  0
 20 25  1  0
 20 42  1  1
 21 22  1  0
 21 43  1  6
 21 44  1  0
 22 23  1  0
 22 45  1  1
 22 46  1  0
 23 24  1  0
 23 47  1  1
 23 48  1  0
 24 25  1  0
 24 49  1  1
 24 50  1  0
 25 51  1  6
 25 52  1  0
 26 27  2  0
 26 30  1  0
 27 28  1  0
 28 29  2  0
 28 53  1  0
 29 30  1  0
 29 54  1  0
M  CHG  1  20   1
M  END
