24 pose 2
     RDKit          3D

 63 68  0  0  1  0  0  0  0  0999 V2000
    5.8645    7.1699   17.1993 C   0  0  0  0  0  0  0  0  0  0  0  0
    6.9490    8.0227   17.4738 C   0  0  0  0  0  0  0  0  0  0  0  0
    6.8152    9.0096   18.4620 C   0  0  0  0  0  0  0  0  0  0  0  0
    4.6369    7.2958   17.8526 C   0  0  0  0  0  0  0  0  0  0  0  0
    4.4667    8.3389   18.7757 C   0  0  0  0  0  0  0  0  0  0  0  0
    5.5679    9.1780   19.0453 C   0  0  0  0  0  0  0  0  0  0  0  0
    5.1123   10.1301   19.9166 N   0  0  0  0  0  0  0  0  0  0  0  0
    3.8256    9.9370   20.2311 N   0  0  0  0  0  0  0  0  0  0  0  0
    3.4087    8.8649   19.5914 C   0  0  0  0  0  0  0  0  0  0  0  0
    2.0349    8.3847   19.7431 C   0  0  0  0  0  0  0  0  0  0  0  0
    1.1159    9.1431   20.4215 N   0  0  0  0  0  0  0  0  0  0  0  0
    1.3820    7.2278   19.3437 C   0  0  0  0  0  0  0  0  0  0  0  0
    0.0304    7.2817   19.8337 C   0  0  0  0  0  0  0  0  0  0  0  0
   -0.1037    8.5286   20.5035 C   0  0  0  0  0  0  0  0  0  0  0  0
   -1.2887    8.9491   21.1025 C   0  0  0  0  0  0  0  0  0  0  0  0
   -2.3544    8.0592   21.0597 C   0  0  0  0  0  0  0  0  0  0  0  0
   -2.2705    6.8222   20.4199 C   0  0  0  0  0  0  0  0  0  0  0  0
   -1.0813    6.4225   19.7961 C   0  0  0  0  0  0  0  0  0  0  0  0
   -3.4670    5.8846   20.4703 C   0  0  2  0  0  0  0  0  0  0  0  0
   -3.6165    5.0889   21.7910 N   0  0  2  0  0  0  0  0  0  0  0  0
   -2.4726    4.0623   21.9966 C   0  0  1  0  0  0  0  0  0  0  0  0
   -2.6730    3.3237   23.3311 C   0  0  2  0  0  0  0  0  0  0  0  0
   -4.0696    2.6984   23.4814 C   0  0  2  0  0  0  0  0  0  0  0  0
   -5.2053    3.6813   23.1537 C   0  0  1  0  0  0  0  0  0  0  0  0
   -5.0080    4.4118   21.8163 C   0  0  2  0  0  0  0  0  0  0  0  0
    8.2384    7.9245   16.7214 C   0  0  0  0  0  0  0  0  0  0  0  0
   -4.1868    2.3649   24.5125 H   0  0  0  0  0  0  0  0  0  0  0  0
    8.6139    6.7355   16.0855 C   0  0  0  0  0  0  0  0  0  0  0  0
    9.7415    6.6461   15.2796 C   0  0  0  0  0  0  0  0  0  0  0  0
   10.5552    7.7577   15.1218 C   0  0  0  0  0  0  0  0  0  0  0  0
   10.2918    8.9198   15.8624 C   0  0  0  0  0  0  0  0  0  0  0  0
    9.1141    9.0050   16.6182 C   0  0  0  0  0  0  0  0  0  0  0  0
   11.5921    7.6684   14.2241 O   0  0  0  0  0  0  0  0  0  0  0  0
   11.2213    9.9272   15.8304 O   0  0  0  0  0  0  0  0  0  0  0  0
   10.9897   11.1326   16.5485 C   0  0  1  0  0  0  0  0  0  0  0  0
    5.9394    6.4094   16.4361 H   0  0  0  0  0  0  0  0  0  0  0  0
    7.6218    9.6702   18.7343 H   0  0  0  0  0  0  0  0  0  0  0  0
    3.8254    6.6316   17.6021 H   0  0  0  0  0  0  0  0  0  0  0  0
    5.6378   10.9131   20.2842 H   0  0  0  0  0  0  0  0  0  0  0  0
    1.3458   10.0639   20.7683 H   0  0  0  0  0  0  0  0  0  0  0  0
    1.8426    6.4193   18.7976 H   0  0  0  0  0  0  0  0  0  0  0  0
   -1.3770    9.9021   21.6053 H   0  0  0  0  0  0  0  0  0  0  0  0
   -3.2707    8.3423   21.5590 H   0  0  0  0  0  0  0  0  0  0  0  0
   -1.0050    5.4586   19.3122 H   0  0  0  0  0  0  0  0  0  0  0  0
   -3.4228    5.1395   19.6735 H   0  0  0  0  0  0  0  0  0  0  0  0
   -4.3928    6.4527   20.3570 H   0  0  0  0  0  0  0  0  0  0  0  0
   -3.5681    5.7523   22.5591 H   0  0  0  0  0  0  0  0  0  0  0  0
   -2.4679    3.3895   21.1357 H   0  0  0  0  0  0  0  0  0  0  0  0
   -1.5282    4.6097   22.0515 H   0  0  0  0  0  0  0  0  0  0  0  0
   -2.4837    4.0018   24.1681 H   0  0  0  0  0  0  0  0  0  0  0  0
   -1.9199    2.5386   23.4047 H   0  0  0  0  0  0  0  0  0  0  0  0
   -4.1557    1.7889   22.8840 H   0  0  0  0  0  0  0  0  0  0  0  0
   -6.1493    3.1361   23.1170 H   0  0  0  0  0  0  0  0  0  0  0  0
   -5.3089    4.4071   23.9640 H   0  0  0  0  0  0  0  0  0  0  0  0
   -5.0674    3.7410   20.9552 H   0  0  0  0  0  0  0  0  0  0  0  0
   -5.7511    5.2080   21.7243 H   0  0  0  0  0  0  0  0  0  0  0  0
    7.9850    5.8779   16.1548 H   0  0  0  0  0  0  0  0  0  0  0  0
    9.9571    5.7290   14.7480 H   0  0  0  0  0  0  0  0  0  0  0  0
    8.8711    9.9214   17.1289 H   0  0  0  0  0  0  0  0  0  0  0  0
   12.3741    7.1814   14.5169 H   0  0  0  0  0  0  0  0  0  0  0  0
   11.8559   11.7848   16.4154 H   0  0  0  0  0  0  0  0  0  0  0  0
   10.1152   11.6638   16.1689 H   0  0  0  0  0  0  0  0  0  0  0  0
   10.8477   10.9394   17.6136 H   0  0  0  0  0  0  0  0  0  0  0  0
  1  2  2  0
  1  4  1  0
  1 36  1  0
  2  3  1  0
  2 26  1  0
  3  6  2  0
  3 37  1  0
  4  5  2  0
  4 38  1  0
  5  6  1  0
  5  9  1  0
  6  7  1  0
  7  8  1  0
  7 39  1  0
  8  9  2  0
  9 10  1  0
 10 11  1  0
 10 12  2  0
 11 14  1  0
 11 40  1  0
 12 13  1  0
 12 41  1  0
 13 14  2  0
 13 18  1  0
 14 15  1  0
 15 16  2  0
 15 42  1  0
 16 17  1  0
 16 43  1  0
 17 18  2  0
 17 19  1  0
 18 44  1  0
 19 20  1  0
 19 45  1  6
 19 46  1  0
 20 21  1  0
 20 25  1  0
 20 47  1  1
 21 22  1  0
 21 48  1  6
 21 49  1  0
 22 23  1  0
 22 50  1  1
 22 51  1  0
 23 24  1  0
 23 27  1  1
 23 52  1  0
 24 25  1  0
 24 53  1  6
 24 54  1  0
 25 55  1  6
 25 56  1  0
 26 32  1  0
 26 28  2  0
 28 29  1  0
 28 57  1  0
 29 30  2  0
 29 58  1  0
 30 31  1  0
 30 33  1  0
 31 32  2  0
 31 34  1  0
 32 59  1  0
 33 60  1  0
 34 35  1  0
 35 61  1  1
 35 62  1  0
 35 63  1  0
M  CHG  1  20   1
M  END
