21 (Xtal)
     RDKit          3D

 58 63  0  0  1  0  0  0  0  0999 V2000
    6.0665    6.9314   17.0056 C   0  0  0  0  0  0  0  0  0  0  0  0
    7.2732    7.6713   17.1596 C   0  0  0  0  0  0  0  0  0  0  0  0
    7.3260    8.7431   18.0915 C   0  0  0  0  0  0  0  0  0  0  0  0
    4.9007    7.2456   17.7412 C   0  0  0  0  0  0  0  0  0  0  0  0
    4.9607    8.3175   18.6511 C   0  0  0  0  0  0  0  0  0  0  0  0
    6.1352    9.0026   18.7780 C   0  0  0  0  0  0  0  0  0  0  0  0
    5.8961   10.0236   19.6638 N   0  0  0  0  0  0  0  0  0  0  0  0
    4.5956    9.9847   20.1063 N   0  0  0  0  0  0  0  0  0  0  0  0
    4.0085    8.9377   19.4973 C   0  0  0  0  0  0  0  0  0  0  0  0
    2.5978    8.5807   19.6963 C   0  0  0  0  0  0  0  0  0  0  0  0
    1.7087    9.3336   20.4308 N   0  0  0  0  0  0  0  0  0  0  0  0
    1.9460    7.4709   19.2387 C   0  0  0  0  0  0  0  0  0  0  0  0
    0.6078    7.5499   19.7122 C   0  0  0  0  0  0  0  0  0  0  0  0
    0.4592    8.7533   20.4658 C   0  0  0  0  0  0  0  0  0  0  0  0
   -0.7595    9.1197   21.0633 C   0  0  0  0  0  0  0  0  0  0  0  0
   -1.8676    8.2629   20.9373 C   0  0  0  0  0  0  0  0  0  0  0  0
   -1.7459    7.0527   20.2218 C   0  0  0  0  0  0  0  0  0  0  0  0
   -0.5229    6.7127   19.6066 C   0  0  0  0  0  0  0  0  0  0  0  0
   -2.9059    6.0762   20.1617 C   0  0  1  0  0  0  0  0  0  0  0  0
   -3.1531    5.4034   21.4617 N   0  0  1  0  0  0  0  0  0  0  0  0
   -4.3439    4.5166   21.3887 C   0  0  1  0  0  0  0  0  0  0  0  0
   -4.6906    3.9252   22.7666 C   0  0  1  0  0  0  0  0  0  0  0  0
   -3.4899    3.1829   23.3688 C   0  0  1  0  0  0  0  0  0  0  0  0
   -2.2731    4.1132   23.4005 C   0  0  1  0  0  0  0  0  0  0  0  0
   -1.9750    4.6705   22.0008 C   0  0  1  0  0  0  0  0  0  0  0  0
    8.4458    7.2561   16.3746 C   0  0  0  0  0  0  0  0  0  0  0  0
    9.5696    7.9915   15.9594 C   0  0  0  0  0  0  0  0  0  0  0  0
   10.4660    7.0967   15.4048 N   0  0  0  0  0  0  0  0  0  0  0  0
    9.8609    5.8949   15.3210 N   0  0  0  0  0  0  0  0  0  0  0  0
    8.6527    5.9780   15.9010 N   0  0  0  0  0  0  0  0  0  0  0  0
    9.8553    9.4649   16.1589 C   0  0  1  0  0  0  0  0  0  0  0  0
   10.4016   10.0203   14.9860 O   0  0  0  0  0  0  0  0  0  0  0  0
    8.2156    9.3217   18.2841 H   0  0  0  0  0  0  0  0  0  0  0  0
    4.0027    6.6854   17.5621 H   0  0  0  0  0  0  0  0  0  0  0  0
    6.5602   10.7317   19.9528 H   0  0  0  0  0  0  0  0  0  0  0  0
    1.9631   10.2107   20.8612 H   0  0  0  0  0  0  0  0  0  0  0  0
    2.2939    6.6330   18.6626 H   0  0  0  0  0  0  0  0  0  0  0  0
   -0.8399   10.0394   21.6232 H   0  0  0  0  0  0  0  0  0  0  0  0
   -2.8021    8.5224   21.4125 H   0  0  0  0  0  0  0  0  0  0  0  0
   -0.4341    5.7828   19.0631 H   0  0  0  0  0  0  0  0  0  0  0  0
   -3.7989    6.6237   19.8569 H   0  0  0  0  0  0  0  0  0  0  0  0
   -2.7213    5.3250   19.3926 H   0  0  0  0  0  0  0  0  0  0  0  0
   -3.3676    6.1337   22.1257 H   0  0  0  0  0  0  0  0  0  0  0  0
   -5.1990    5.0807   21.0139 H   0  0  0  0  0  0  0  0  0  0  0  0
   -4.1581    3.7136   20.6731 H   0  0  0  0  0  0  0  0  0  0  0  0
   -5.0006    4.7252   23.4399 H   0  0  0  0  0  0  0  0  0  0  0  0
   -5.5412    3.2486   22.6790 H   0  0  0  0  0  0  0  0  0  0  0  0
   -3.7248    2.8330   24.3746 H   0  0  0  0  0  0  0  0  0  0  0  0
   -3.2623    2.2974   22.7736 H   0  0  0  0  0  0  0  0  0  0  0  0
   -2.4630    4.9381   24.0871 H   0  0  0  0  0  0  0  0  0  0  0  0
   -1.4045    3.5859   23.7908 H   0  0  0  0  0  0  0  0  0  0  0  0
   -1.6917    3.8663   21.3197 H   0  0  0  0  0  0  0  0  0  0  0  0
   -1.1171    5.3367   22.0774 H   0  0  0  0  0  0  0  0  0  0  0  0
    8.9341   10.0037   16.3586 H   0  0  0  0  0  0  0  0  0  0  0  0
   10.5368    9.6148   16.9876 H   0  0  0  0  0  0  0  0  0  0  0  0
    8.0371    5.1866   16.0252 H   0  0  0  0  0  0  0  0  0  0  0  0
   10.8168   10.8460   15.2073 H   0  0  0  0  0  0  0  0  0  0  0  0
    6.0177    6.1165   16.2975 H   0  0  0  0  0  0  0  0  0  0  0  0
  1  2  2  0
  1  4  1  0
  1 58  1  0
  2  3  1  0
  2 26  1  0
  3  6  2  0
  3 33  1  0
  4  5  2  0
  4 34  1  0
  5  6  1  0
  5  9  1  0
  6  7  1  0
  7  8  1  0
  7 35  1  0
  8  9  2  0
  9 10  1  0
 10 11  1  0
 10 12  2  0
 11 14  1  0
 11 36  1  0
 12 13  1  0
 12 37  1  0
 13 14  2  0
 13 18  1  0
 14 15  1  0
 15 16  2  0
 15 38  1  0
 16 17  1  0
 16 39  1  0
 17 18  2  0
 17 19  1  0
 18 40  1  0
 19 20  1  0
 19 41  1  6
 19 42  1  0
 20 21  1  0
 20 25  1  0
 20 43  1  1
 21 22  1  0
 21 44  1  6
 21 45  1  0
 22 23  1  0
 22 46  1  1
 22 47  1  0
 23 24  1  0
 23 48  1  1
 23 49  1  0
 24 25  1  0
 24 50  1  1
 24 51  1  0
 25 52  1  6
 25 53  1  0
 26 27  2  0
 26 30  1  0
 27 28  1  0
 27 31  1  0
 28 29  2  0
 29 30  1  0
 30 56  1  0
 31 32  1  0
 31 54  1  1
 31 55  1  0
 32 57  1  0
M  CHG  1  20   1
M  END
