17 torsion adjust
     RDKit          3D

 57 62  0  0  1  0  0  0  0  0999 V2000
    6.0665    6.9314   17.0056 C   0  0  0  0  0  0  0  0  0  0  0  0
    7.2732    7.6713   17.1596 C   0  0  0  0  0  0  0  0  0  0  0  0
    7.3260    8.7431   18.0915 C   0  0  0  0  0  0  0  0  0  0  0  0
    4.9007    7.2456   17.7412 C   0  0  0  0  0  0  0  0  0  0  0  0
    4.9607    8.3175   18.6511 C   0  0  0  0  0  0  0  0  0  0  0  0
    6.1352    9.0026   18.7780 C   0  0  0  0  0  0  0  0  0  0  0  0
    5.8961   10.0236   19.6638 N   0  0  0  0  0  0  0  0  0  0  0  0
    4.5956    9.9847   20.1063 N   0  0  0  0  0  0  0  0  0  0  0  0
    4.0085    8.9377   19.4973 C   0  0  0  0  0  0  0  0  0  0  0  0
    2.5978    8.5807   19.6963 C   0  0  0  0  0  0  0  0  0  0  0  0
    1.7087    9.3336   20.4308 N   0  0  0  0  0  0  0  0  0  0  0  0
    1.9460    7.4709   19.2387 C   0  0  0  0  0  0  0  0  0  0  0  0
    0.6078    7.5499   19.7122 C   0  0  0  0  0  0  0  0  0  0  0  0
    0.4592    8.7533   20.4658 C   0  0  0  0  0  0  0  0  0  0  0  0
   -0.7595    9.1197   21.0633 C   0  0  0  0  0  0  0  0  0  0  0  0
   -1.8676    8.2629   20.9373 C   0  0  0  0  0  0  0  0  0  0  0  0
   -1.7459    7.0527   20.2218 C   0  0  0  0  0  0  0  0  0  0  0  0
   -0.5229    6.7127   19.6066 C   0  0  0  0  0  0  0  0  0  0  0  0
   -2.9059    6.0762   20.1617 C   0  0  2  0  0  0  0  0  0  0  0  0
   -3.1531    5.4034   21.4617 N   0  0  2  0  0  0  0  0  0  0  0  0
   -1.9750    4.6705   22.0008 C   0  0  2  0  0  0  0  0  0  0  0  0
   -2.2731    4.1132   23.4005 C   0  0  2  0  0  0  0  0  0  0  0  0
   -3.4899    3.1830   23.3688 C   0  0  2  0  0  0  0  0  0  0  0  0
   -4.6906    3.9252   22.7666 C   0  0  2  0  0  0  0  0  0  0  0  0
   -4.3439    4.5166   21.3887 C   0  0  2  0  0  0  0  0  0  0  0  0
    8.4516    7.3234   16.3710 N   0  0  0  0  0  0  0  0  0  0  0  0
    8.6788    6.1254   15.7431 C   0  0  0  0  0  0  0  0  0  0  0  0
    9.9155    6.2858   15.1365 C   0  0  0  0  0  0  0  0  0  0  0  0
   10.3909    7.4934   15.3855 N   0  0  0  0  0  0  0  0  0  0  0  0
    9.4723    8.1663   16.1692 N   0  0  0  0  0  0  0  0  0  0  0  0
    7.6947    4.9950   15.8040 C   0  0  1  0  0  0  0  0  0  0  0  0
    6.0406    6.1186   16.2926 H   0  0  0  0  0  0  0  0  0  0  0  0
    8.2193    9.3327   18.2327 H   0  0  0  0  0  0  0  0  0  0  0  0
    4.0065    6.6817   17.5577 H   0  0  0  0  0  0  0  0  0  0  0  0
    6.5421   10.7340   19.9772 H   0  0  0  0  0  0  0  0  0  0  0  0
    2.0081   10.2002   20.8569 H   0  0  0  0  0  0  0  0  0  0  0  0
    2.3320    6.6528   18.6596 H   0  0  0  0  0  0  0  0  0  0  0  0
   -0.8349   10.0473   21.6135 H   0  0  0  0  0  0  0  0  0  0  0  0
   -2.8017    8.5518   21.4000 H   0  0  0  0  0  0  0  0  0  0  0  0
   -0.4154    5.7953   19.0459 H   0  0  0  0  0  0  0  0  0  0  0  0
   -2.7242    5.3315   19.3841 H   0  0  0  0  0  0  0  0  0  0  0  0
   -3.7961    6.6289   19.8551 H   0  0  0  0  0  0  0  0  0  0  0  0
   -3.3547    6.1410   22.1214 H   0  0  0  0  0  0  0  0  0  0  0  0
   -1.1101    5.3314   22.0768 H   0  0  0  0  0  0  0  0  0  0  0  0
   -1.6917    3.8641   21.3217 H   0  0  0  0  0  0  0  0  0  0  0  0
   -2.4423    4.9288   24.1061 H   0  0  0  0  0  0  0  0  0  0  0  0
   -1.4040    3.5682   23.7742 H   0  0  0  0  0  0  0  0  0  0  0  0
   -3.7263    2.8343   24.3760 H   0  0  0  0  0  0  0  0  0  0  0  0
   -3.2654    2.2910   22.7808 H   0  0  0  0  0  0  0  0  0  0  0  0
   -5.0129    4.7171   23.4452 H   0  0  0  0  0  0  0  0  0  0  0  0
   -5.5384    3.2430   22.6773 H   0  0  0  0  0  0  0  0  0  0  0  0
   -4.1626    3.7106   20.6745 H   0  0  0  0  0  0  0  0  0  0  0  0
   -5.2031    5.0769   21.0149 H   0  0  0  0  0  0  0  0  0  0  0  0
   10.4488    5.5562   14.5389 H   0  0  0  0  0  0  0  0  0  0  0  0
    8.0797    4.1472   15.2374 H   0  0  0  0  0  0  0  0  0  0  0  0
    7.5442    4.6999   16.8424 H   0  0  0  0  0  0  0  0  0  0  0  0
    6.7451    5.3166   15.3763 H   0  0  0  0  0  0  0  0  0  0  0  0
  1  2  2  0
  1  4  1  0
  1 32  1  0
  2  3  1  0
  2 26  1  0
  3  6  2  0
  3 33  1  0
  4  5  2  0
  4 34  1  0
  5  6  1  0
  5  9  1  0
  6  7  1  0
  7  8  1  0
  7 35  1  0
  8  9  2  0
  9 10  1  0
 10 11  1  0
 10 12  2  0
 11 14  1  0
 11 36  1  0
 12 13  1  0
 12 37  1  0
 13 14  2  0
 13 18  1  0
 14 15  1  0
 15 16  2  0
 15 38  1  0
 16 17  1  0
 16 39  1  0
 17 18  2  0
 17 19  1  0
 18 40  1  0
 19 20  1  0
 19 41  1  6
 19 42  1  0
 20 21  1  0
 20 25  1  0
 20 43  1  1
 21 22  1  0
 21 44  1  1
 21 45  1  0
 22 23  1  0
 22 46  1  1
 22 47  1  0
 23 24  1  0
 23 48  1  1
 23 49  1  0
 24 25  1  0
 24 50  1  1
 24 51  1  0
 25 52  1  6
 25 53  1  0
 26 27  1  0
 26 30  1  0
 27 28  2  0
 27 31  1  0
 28 29  1  0
 28 54  1  0
 29 30  2  0
 31 55  1  6
 31 56  1  0
 31 57  1  0
M  CHG  1  20   1
M  END
