20
     RDKit          3D

 58 63  0  0  1  0  0  0  0  0999 V2000
    6.0665    6.9314   17.0056 C   0  0  0  0  0  0  0  0  0  0  0  0
    7.2732    7.6713   17.1596 C   0  0  0  0  0  0  0  0  0  0  0  0
    7.3260    8.7431   18.0915 C   0  0  0  0  0  0  0  0  0  0  0  0
    4.9007    7.2456   17.7412 C   0  0  0  0  0  0  0  0  0  0  0  0
    4.9607    8.3175   18.6511 C   0  0  0  0  0  0  0  0  0  0  0  0
    6.1352    9.0026   18.7780 C   0  0  0  0  0  0  0  0  0  0  0  0
    5.8961   10.0236   19.6638 N   0  0  0  0  0  0  0  0  0  0  0  0
    4.5956    9.9847   20.1063 N   0  0  0  0  0  0  0  0  0  0  0  0
    4.0085    8.9377   19.4973 C   0  0  0  0  0  0  0  0  0  0  0  0
    2.5978    8.5807   19.6963 C   0  0  0  0  0  0  0  0  0  0  0  0
    1.7087    9.3336   20.4308 N   0  0  0  0  0  0  0  0  0  0  0  0
    1.9460    7.4709   19.2387 C   0  0  0  0  0  0  0  0  0  0  0  0
    0.6078    7.5499   19.7122 C   0  0  0  0  0  0  0  0  0  0  0  0
    0.4592    8.7533   20.4658 C   0  0  0  0  0  0  0  0  0  0  0  0
   -0.7595    9.1197   21.0633 C   0  0  0  0  0  0  0  0  0  0  0  0
   -1.8676    8.2629   20.9373 C   0  0  0  0  0  0  0  0  0  0  0  0
   -1.7459    7.0527   20.2218 C   0  0  0  0  0  0  0  0  0  0  0  0
   -0.5229    6.7127   19.6066 C   0  0  0  0  0  0  0  0  0  0  0  0
   -2.9059    6.0762   20.1617 C   0  0  2  0  0  0  0  0  0  0  0  0
   -3.1531    5.4034   21.4617 N   0  0  2  0  0  0  0  0  0  0  0  0
   -1.9750    4.6705   22.0008 C   0  0  2  0  0  0  0  0  0  0  0  0
   -2.2731    4.1132   23.4005 C   0  0  2  0  0  0  0  0  0  0  0  0
   -3.4899    3.1830   23.3688 C   0  0  2  0  0  0  0  0  0  0  0  0
   -4.6906    3.9252   22.7666 C   0  0  2  0  0  0  0  0  0  0  0  0
   -4.3439    4.5166   21.3887 C   0  0  2  0  0  0  0  0  0  0  0  0
    8.4839    7.3139   16.3493 C   0  0  0  0  0  0  0  0  0  0  0  0
   -3.7339    2.8740   24.3853 H   0  0  0  0  0  0  0  0  0  0  0  0
    9.4054    8.2962   16.0065 C   0  0  0  0  0  0  0  0  0  0  0  0
   10.5271    7.9650   15.2557 C   0  0  0  0  0  0  0  0  0  0  0  0
   10.7273    6.6515   14.8478 C   0  0  0  0  0  0  0  0  0  0  0  0
    9.8058    5.6693   15.1906 C   0  0  0  0  0  0  0  0  0  0  0  0
    8.6840    6.0005   15.9414 C   0  0  0  0  0  0  0  0  0  0  0  0
    6.0405    6.1186   16.2926 H   0  0  0  0  0  0  0  0  0  0  0  0
    8.2193    9.3327   18.2327 H   0  0  0  0  0  0  0  0  0  0  0  0
    4.0066    6.6817   17.5575 H   0  0  0  0  0  0  0  0  0  0  0  0
    6.5421   10.7340   19.9773 H   0  0  0  0  0  0  0  0  0  0  0  0
    2.0083   10.2002   20.8569 H   0  0  0  0  0  0  0  0  0  0  0  0
    2.3322    6.6530   18.6596 H   0  0  0  0  0  0  0  0  0  0  0  0
   -0.8348   10.0475   21.6134 H   0  0  0  0  0  0  0  0  0  0  0  0
   -2.8015    8.5527   21.3999 H   0  0  0  0  0  0  0  0  0  0  0  0
   -0.4149    5.7960   19.0448 H   0  0  0  0  0  0  0  0  0  0  0  0
   -2.7245    5.3323   19.3832 H   0  0  0  0  0  0  0  0  0  0  0  0
   -3.7959    6.6297   19.8554 H   0  0  0  0  0  0  0  0  0  0  0  0
   -3.3539    6.1459   22.1175 H   0  0  0  0  0  0  0  0  0  0  0  0
   -1.1106    5.3319   22.0780 H   0  0  0  0  0  0  0  0  0  0  0  0
   -1.6904    3.8645   21.3217 H   0  0  0  0  0  0  0  0  0  0  0  0
   -2.4451    4.9300   24.1040 H   0  0  0  0  0  0  0  0  0  0  0  0
   -1.4052    3.5693   23.7781 H   0  0  0  0  0  0  0  0  0  0  0  0
   -3.2712    2.2690   22.8120 H   0  0  0  0  0  0  0  0  0  0  0  0
   -5.0096    4.7190   23.4446 H   0  0  0  0  0  0  0  0  0  0  0  0
   -5.5395    3.2441   22.6814 H   0  0  0  0  0  0  0  0  0  0  0  0
   -4.1639    3.7109   20.6738 H   0  0  0  0  0  0  0  0  0  0  0  0
   -5.2033    5.0775   21.0162 H   0  0  0  0  0  0  0  0  0  0  0  0
    9.2496    9.3187   16.3241 H   0  0  0  0  0  0  0  0  0  0  0  0
   11.2446    8.7297   14.9888 H   0  0  0  0  0  0  0  0  0  0  0  0
   11.6006    6.3937   14.2633 H   0  0  0  0  0  0  0  0  0  0  0  0
    9.9616    4.6467   14.8730 H   0  0  0  0  0  0  0  0  0  0  0  0
    7.9666    5.2357   16.2084 H   0  0  0  0  0  0  0  0  0  0  0  0
  1  2  2  0
  1  4  1  0
  1 33  1  0
  2  3  1  0
  2 26  1  0
  3  6  2  0
  3 34  1  0
  4  5  2  0
  4 35  1  0
  5  6  1  0
  5  9  1  0
  6  7  1  0
  7  8  1  0
  7 36  1  0
  8  9  2  0
  9 10  1  0
 10 11  1  0
 10 12  2  0
 11 14  1  0
 11 37  1  0
 12 13  1  0
 12 38  1  0
 13 14  2  0
 13 18  1  0
 14 15  1  0
 15 16  2  0
 15 39  1  0
 16 17  1  0
 16 40  1  0
 17 18  2  0
 17 19  1  0
 18 41  1  0
 19 20  1  0
 19 42  1  6
 19 43  1  0
 20 21  1  0
 20 25  1  0
 20 44  1  1
 21 22  1  0
 21 45  1  1
 21 46  1  0
 22 23  1  0
 22 47  1  1
 22 48  1  0
 23 24  1  0
 23 27  1  1
 23 49  1  0
 24 25  1  0
 24 50  1  1
 24 51  1  0
 25 52  1  6
 25 53  1  0
 26 32  1  0
 26 28  2  0
 28 29  1  0
 28 54  1  0
 29 30  2  0
 29 55  1  0
 30 31  1  0
 30 56  1  0
 31 32  2  0
 31 57  1  0
 32 58  1  0
M  CHG  1  20   1
M  END
