1_3E62
     RDKit          3D

 17 18  0  0  1  0  0  0  0  0999 V2000
   33.5725   40.8082   36.3588 C   0  0  0  0  0  0  0  0  0  0  0  0
   32.9022   39.7525   37.0165 C   0  0  0  0  0  0  0  0  0  0  0  0
   33.3729   42.2068   36.1316 C   0  0  0  0  0  0  0  0  0  0  0  0
   32.2915   42.9552   36.5889 N   0  0  0  0  0  0  0  0  0  0  0  0
   33.4255   38.4376   37.0314 C   0  0  0  0  0  0  0  0  0  0  0  0
   34.6492   38.1828   36.3679 C   0  0  0  0  0  0  0  0  0  0  0  0
   32.4995   37.0396   37.9270 Br  0  0  0  0  0  0  0  0  0  0  0  0
   35.3410   39.2138   35.7023 C   0  0  0  0  0  0  0  0  0  0  0  0
   34.7974   40.5093   35.7056 C   0  0  0  0  0  0  0  0  0  0  0  0
   35.1925   41.7259   35.1722 N   0  0  0  0  0  0  0  0  0  0  0  0
   34.3336   42.7469   35.4297 N   0  0  0  0  0  0  0  0  0  0  0  0
   31.9704   39.9591   37.5180 H   0  0  0  0  0  0  0  0  0  0  0  0
   32.2192   43.9333   36.3542 H   0  0  0  0  0  0  0  0  0  0  0  0
   31.5280   42.5361   37.0951 H   0  0  0  0  0  0  0  0  0  0  0  0
   35.0526   37.1802   36.3763 H   0  0  0  0  0  0  0  0  0  0  0  0
   36.2737   39.0074   35.1998 H   0  0  0  0  0  0  0  0  0  0  0  0
   36.0299   41.8949   34.6349 H   0  0  0  0  0  0  0  0  0  0  0  0
  1  2  1  0
  1  3  1  0
  1  9  2  0
  2  5  2  0
  2 12  1  0
  3  4  1  0
  3 11  2  0
  4 13  1  0
  4 14  1  0
  5  6  1  0
  5  7  1  0
  6  8  2  0
  6 15  1  0
  8  9  1  0
  8 16  1  0
  9 10  1  0
 10 11  1  0
 10 17  1  0
M  END
