5
     RDKit          3D

 26 28  0  0  1  0  0  0  0  0999 V2000
   33.5735   40.8047   36.3833 C   0  0  0  0  0  0  0  0  0  0  0  0
   32.8988   39.7611   37.0564 C   0  0  0  0  0  0  0  0  0  0  0  0
   33.3859   42.2145   36.1903 C   0  0  0  0  0  0  0  0  0  0  0  0
   32.3265   42.9962   36.7127 N   0  0  0  0  0  0  0  0  0  0  0  0
   33.4077   38.4415   37.0141 C   0  0  0  0  0  0  0  0  0  0  0  0
   34.6076   38.1659   36.3064 C   0  0  0  0  0  0  0  0  0  0  0  0
   35.2913   39.1877   35.6167 C   0  0  0  0  0  0  0  0  0  0  0  0
   34.7674   40.4907   35.6657 C   0  0  0  0  0  0  0  0  0  0  0  0
   35.1587   41.7109   35.1232 N   0  0  0  0  0  0  0  0  0  0  0  0
   34.3274   42.7354   35.4535 N   0  0  0  0  0  0  0  0  0  0  0  0
   32.7043   37.3561   37.7171 C   0  0  0  0  0  0  0  0  0  0  0  0
   31.9557   37.6152   38.8966 C   0  0  0  0  0  0  0  0  0  0  0  0
   31.2977   36.5432   39.5406 C   0  0  0  0  0  0  0  0  0  0  0  0
   31.3692   35.2658   39.0927 N   0  0  0  0  0  0  0  0  0  0  0  0
   32.0675   35.0232   37.9518 C   0  0  0  0  0  0  0  0  0  0  0  0
   32.7442   36.0277   37.2284 C   0  0  0  0  0  0  0  0  0  0  0  0
   31.9783   39.9866   37.5696 H   0  0  0  0  0  0  0  0  0  0  0  0
   31.5252   42.5130   37.1215 H   0  0  0  0  0  0  0  0  0  0  0  0
   32.1417   43.9194   36.3131 H   0  0  0  0  0  0  0  0  0  0  0  0
   35.0174   37.1670   36.2779 H   0  0  0  0  0  0  0  0  0  0  0  0
   36.1996   38.9735   35.0691 H   0  0  0  0  0  0  0  0  0  0  0  0
   35.9936   41.8918   34.5697 H   0  0  0  0  0  0  0  0  0  0  0  0
   31.8846   38.6028   39.3240 H   0  0  0  0  0  0  0  0  0  0  0  0
   30.7328   36.7134   40.4464 H   0  0  0  0  0  0  0  0  0  0  0  0
   32.0869   33.9895   37.6122 H   0  0  0  0  0  0  0  0  0  0  0  0
   33.2818   35.7674   36.3256 H   0  0  0  0  0  0  0  0  0  0  0  0
  1  2  1  0
  1  3  1  0
  1  8  2  0
  2  5  2  0
  2 17  1  0
  3  4  1  0
  3 10  2  0
  4 18  1  0
  4 19  1  0
  5  6  1  0
  5 11  1  0
  6  7  2  0
  6 20  1  0
  7  8  1  0
  7 21  1  0
  8  9  1  0
  9 10  1  0
  9 22  1  0
 11 12  1  0
 11 16  2  0
 12 13  2  0
 12 23  1  0
 13 14  1  0
 13 24  1  0
 14 15  2  0
 15 16  1  0
 15 25  1  0
 16 26  1  0
M  END
