3 alternative
     RDKit          3D

 27 29  0  0  1  0  0  0  0  0999 V2000
   33.5915   40.8222   36.4061 C   0  0  0  0  0  0  0  0  0  0  0  0
   32.9286   39.7684   37.0782 C   0  0  0  0  0  0  0  0  0  0  0  0
   33.3660   42.2109   36.1343 C   0  0  0  0  0  0  0  0  0  0  0  0
   32.2795   42.9289   36.5401 N   0  0  0  0  0  0  0  0  0  0  0  0
   33.4196   38.4486   37.0012 C   0  0  0  0  0  0  0  0  0  0  0  0
   34.6202   38.1694   36.3120 C   0  0  0  0  0  0  0  0  0  0  0  0
   35.3401   39.2139   35.7010 C   0  0  0  0  0  0  0  0  0  0  0  0
   34.8128   40.5164   35.7374 C   0  0  0  0  0  0  0  0  0  0  0  0
   35.1982   41.7262   35.1849 N   0  0  0  0  0  0  0  0  0  0  0  0
   34.3218   42.7341   35.4097 N   0  0  0  0  0  0  0  0  0  0  0  0
   36.2777   34.2094   36.1786 C   0  0  0  0  0  0  0  0  0  0  0  0
   34.9503   34.3915   36.6058 C   0  0  0  0  0  0  0  0  0  0  0  0
   34.3953   35.6871   36.6076 C   0  0  0  0  0  0  0  0  0  0  0  0
   35.1691   36.8070   36.2295 C   0  0  0  0  0  0  0  0  0  0  0  0
   36.5016   36.6005   35.8092 C   0  0  0  0  0  0  0  0  0  0  0  0
   37.0520   35.3099   35.7752 C   0  0  0  0  0  0  0  0  0  0  0  0
   32.0396   39.9539   37.6628 H   0  0  0  0  0  0  0  0  0  0  0  0
   32.3073   43.9379   36.5277 H   0  0  0  0  0  0  0  0  0  0  0  0
   31.3951   42.4726   36.7086 H   0  0  0  0  0  0  0  0  0  0  0  0
   32.8569   37.6658   37.4892 H   0  0  0  0  0  0  0  0  0  0  0  0
   36.2801   39.0273   35.2022 H   0  0  0  0  0  0  0  0  0  0  0  0
   36.0317   41.9223   34.6493 H   0  0  0  0  0  0  0  0  0  0  0  0
   36.7089   33.2191   36.1587 H   0  0  0  0  0  0  0  0  0  0  0  0
   34.3651   33.5424   36.9274 H   0  0  0  0  0  0  0  0  0  0  0  0
   33.3619   35.8117   36.8972 H   0  0  0  0  0  0  0  0  0  0  0  0
   37.1145   37.4403   35.5152 H   0  0  0  0  0  0  0  0  0  0  0  0
   38.0686   35.1617   35.4414 H   0  0  0  0  0  0  0  0  0  0  0  0
  1  2  1  0
  1  3  1  0
  1  8  2  0
  2  5  2  0
  2 17  1  0
  3  4  1  0
  3 10  2  0
  4 18  1  0
  4 19  1  0
  5  6  1  0
  5 20  1  0
  6  7  2  0
  6 14  1  0
  7  8  1  0
  7 21  1  0
  8  9  1  0
  9 10  1  0
  9 22  1  0
 11 12  2  0
 11 16  1  0
 11 23  1  0
 12 13  1  0
 12 24  1  0
 13 14  2  0
 13 25  1  0
 14 15  1  0
 15 16  2  0
 15 26  1  0
 16 27  1  0
M  END
