9
     RDKit          3D

 27 29  0  0  1  0  0  0  0  0999 V2000
   33.5725   40.8082   36.3588 C   0  0  0  0  0  0  0  0  0  0  0  0
   32.9022   39.7525   37.0165 C   0  0  0  0  0  0  0  0  0  0  0  0
   33.3729   42.2068   36.1316 C   0  0  0  0  0  0  0  0  0  0  0  0
   32.2915   42.9552   36.5889 N   0  0  0  0  0  0  0  0  0  0  0  0
   33.4255   38.4376   37.0314 C   0  0  0  0  0  0  0  0  0  0  0  0
   34.6492   38.1828   36.3679 C   0  0  0  0  0  0  0  0  0  0  0  0
   35.3410   39.2138   35.7023 C   0  0  0  0  0  0  0  0  0  0  0  0
   34.7974   40.5093   35.7056 C   0  0  0  0  0  0  0  0  0  0  0  0
   35.1925   41.7259   35.1722 N   0  0  0  0  0  0  0  0  0  0  0  0
   34.3336   42.7469   35.4297 N   0  0  0  0  0  0  0  0  0  0  0  0
   32.7071   37.3547   37.7287 C   0  0  0  0  0  0  0  0  0  0  0  0
   32.1231   37.5755   38.9966 C   0  0  0  0  0  0  0  0  0  0  0  0
   31.4350   36.5450   39.6665 C   0  0  0  0  0  0  0  0  0  0  0  0
   31.3205   35.2742   39.0738 C   0  0  0  0  0  0  0  0  0  0  0  0
   31.8965   35.0386   37.8120 C   0  0  0  0  0  0  0  0  0  0  0  0
   32.5842   36.0725   37.1468 C   0  0  0  0  0  0  0  0  0  0  0  0
   31.7269   33.4697   37.1333 Cl  0  0  0  0  0  0  0  0  0  0  0  0
   31.9315   39.9865   37.4238 H   0  0  0  0  0  0  0  0  0  0  0  0
   32.2192   43.9333   36.3542 H   0  0  0  0  0  0  0  0  0  0  0  0
   31.5280   42.5361   37.0951 H   0  0  0  0  0  0  0  0  0  0  0  0
   35.0810   37.1916   36.3671 H   0  0  0  0  0  0  0  0  0  0  0  0
   36.2476   38.9923   35.1575 H   0  0  0  0  0  0  0  0  0  0  0  0
   36.0349   41.9001   34.6355 H   0  0  0  0  0  0  0  0  0  0  0  0
   32.1850   38.5360   39.4838 H   0  0  0  0  0  0  0  0  0  0  0  0
   31.0033   36.7356   40.6364 H   0  0  0  0  0  0  0  0  0  0  0  0
   30.7947   34.4796   39.5832 H   0  0  0  0  0  0  0  0  0  0  0  0
   33.0164   35.8627   36.1794 H   0  0  0  0  0  0  0  0  0  0  0  0
  1  2  1  0
  1  3  1  0
  1  8  2  0
  2  5  2  0
  2 18  1  0
  3  4  1  0
  3 10  2  0
  4 19  1  0
  4 20  1  0
  5  6  1  0
  5 11  1  0
  6  7  2  0
  6 21  1  0
  7  8  1  0
  7 22  1  0
  8  9  1  0
  9 10  1  0
  9 23  1  0
 11 12  1  0
 11 16  2  0
 12 13  2  0
 12 24  1  0
 13 14  1  0
 13 25  1  0
 14 15  2  0
 14 26  1  0
 15 16  1  0
 15 17  1  0
 16 27  1  0
M  END
