4a
     RDKit          3D

 24 26  0  0  1  0  0  0  0  0999 V2000
   33.5806   40.8499   36.3839 C   0  0  0  0  0  0  0  0  0  0  0  0
   32.9187   39.8527   37.1258 C   0  0  0  0  0  0  0  0  0  0  0  0
   33.3931   42.2340   36.0866 C   0  0  0  0  0  0  0  0  0  0  0  0
   32.3394   43.0498   36.5501 N   0  0  0  0  0  0  0  0  0  0  0  0
   33.4149   38.5243   37.1605 C   0  0  0  0  0  0  0  0  0  0  0  0
   34.5944   38.1966   36.4384 C   0  0  0  0  0  0  0  0  0  0  0  0
   35.2931   39.1748   35.7036 C   0  0  0  0  0  0  0  0  0  0  0  0
   34.7676   40.4785   35.6761 C   0  0  0  0  0  0  0  0  0  0  0  0
   35.1651   41.6501   35.0438 N   0  0  0  0  0  0  0  0  0  0  0  0
   34.3280   42.7008   35.2932 N   0  0  0  0  0  0  0  0  0  0  0  0
   32.6967   37.4988   37.9441 C   0  0  0  0  0  0  0  0  0  0  0  0
   31.9439   37.5562   39.0936 C   0  0  0  0  0  0  0  0  0  0  0  0
   31.5726   36.1947   39.3407 C   0  0  0  0  0  0  0  0  0  0  0  0
   32.0392   35.3438   38.4293 N   0  0  0  0  0  0  0  0  0  0  0  0
   32.7063   36.1545   37.5571 N   0  0  0  0  0  0  0  0  0  0  0  0
   32.0069   40.0980   37.6576 H   0  0  0  0  0  0  0  0  0  0  0  0
   31.5747   42.6294   37.0840 H   0  0  0  0  0  0  0  0  0  0  0  0
   32.1424   43.9574   36.1148 H   0  0  0  0  0  0  0  0  0  0  0  0
   34.9968   37.2002   36.4881 H   0  0  0  0  0  0  0  0  0  0  0  0
   36.1849   38.9095   35.1616 H   0  0  0  0  0  0  0  0  0  0  0  0
   36.0018   41.7970   34.4793 H   0  0  0  0  0  0  0  0  0  0  0  0
   31.7447   38.4365   39.6851 H   0  0  0  0  0  0  0  0  0  0  0  0
   30.9877   35.7977   40.1586 H   0  0  0  0  0  0  0  0  0  0  0  0
   33.1684   35.7785   36.7342 H   0  0  0  0  0  0  0  0  0  0  0  0
  1  2  1  0
  1  3  1  0
  1  8  2  0
  2  5  2  0
  2 16  1  0
  3  4  1  0
  3 10  2  0
  4 17  1  0
  4 18  1  0
  5  6  1  0
  5 11  1  0
  6  7  2  0
  6 19  1  0
  7  8  1  0
  7 20  1  0
  8  9  1  0
  9 10  1  0
  9 21  1  0
 11 15  1  0
 11 12  2  0
 12 13  1  0
 12 22  1  0
 13 23  1  0
 13 14  2  0
 14 15  1  0
 15 24  1  0
M  END
