8
     RDKit          3D

 27 29  0  0  1  0  0  0  0  0999 V2000
   33.5725   40.8082   36.3588 C   0  0  0  0  0  0  0  0  0  0  0  0
   32.9022   39.7525   37.0165 C   0  0  0  0  0  0  0  0  0  0  0  0
   33.3729   42.2068   36.1316 C   0  0  0  0  0  0  0  0  0  0  0  0
   32.2915   42.9552   36.5889 N   0  0  0  0  0  0  0  0  0  0  0  0
   33.4255   38.4376   37.0314 C   0  0  0  0  0  0  0  0  0  0  0  0
   34.6492   38.1828   36.3679 C   0  0  0  0  0  0  0  0  0  0  0  0
   35.3410   39.2138   35.7023 C   0  0  0  0  0  0  0  0  0  0  0  0
   34.7974   40.5093   35.7056 C   0  0  0  0  0  0  0  0  0  0  0  0
   35.1925   41.7259   35.1722 N   0  0  0  0  0  0  0  0  0  0  0  0
   34.3336   42.7469   35.4297 N   0  0  0  0  0  0  0  0  0  0  0  0
   32.7071   37.3547   37.7287 C   0  0  0  0  0  0  0  0  0  0  0  0
   32.5842   36.0725   37.1468 C   0  0  0  0  0  0  0  0  0  0  0  0
   31.8965   35.0386   37.8120 C   0  0  0  0  0  0  0  0  0  0  0  0
   31.3205   35.2742   39.0738 C   0  0  0  0  0  0  0  0  0  0  0  0
   31.4350   36.5450   39.6665 C   0  0  0  0  0  0  0  0  0  0  0  0
   32.1231   37.5755   38.9966 C   0  0  0  0  0  0  0  0  0  0  0  0
   32.3106   39.0432   39.8996 Cl  0  0  0  0  0  0  0  0  0  0  0  0
   31.9556   39.9798   37.4796 H   0  0  0  0  0  0  0  0  0  0  0  0
   32.2192   43.9333   36.3542 H   0  0  0  0  0  0  0  0  0  0  0  0
   31.5280   42.5361   37.0951 H   0  0  0  0  0  0  0  0  0  0  0  0
   35.0689   37.1868   36.3786 H   0  0  0  0  0  0  0  0  0  0  0  0
   36.2756   39.0096   35.2029 H   0  0  0  0  0  0  0  0  0  0  0  0
   36.0296   41.8936   34.6349 H   0  0  0  0  0  0  0  0  0  0  0  0
   33.0114   35.8796   36.1737 H   0  0  0  0  0  0  0  0  0  0  0  0
   31.8097   34.0646   37.3516 H   0  0  0  0  0  0  0  0  0  0  0  0
   30.7961   34.4818   39.5884 H   0  0  0  0  0  0  0  0  0  0  0  0
   31.0129   36.7257   40.6442 H   0  0  0  0  0  0  0  0  0  0  0  0
  1  2  1  0
  1  3  1  0
  1  8  2  0
  2  5  2  0
  2 18  1  0
  3  4  1  0
  3 10  2  0
  4 19  1  0
  4 20  1  0
  5  6  1  0
  5 11  1  0
  6  7  2  0
  6 21  1  0
  7  8  1  0
  7 22  1  0
  8  9  1  0
  9 10  1  0
  9 23  1  0
 11 12  1  0
 11 16  2  0
 12 13  2  0
 12 24  1  0
 13 14  1  0
 13 25  1  0
 14 15  2  0
 14 26  1  0
 15 16  1  0
 15 27  1  0
 16 17  1  0
M  END
