1h1s
     RDKit          3D

 50 53  0  0  1  0  0  0  0  0999 V2000
    1.4217   29.0339    6.7678 C   0  0  0  0  0  0  0  0  0  0  0  0
   -1.4495   32.1629    8.0083 C   0  0  0  0  0  0  0  0  0  0  0  0
   -0.5815   26.6248    8.9778 C   0  0  2  0  0  0  0  0  0  0  0  0
   -1.2497   25.7672   10.0807 C   0  0  1  0  0  0  0  0  0  0  0  0
   -1.3554   24.3310    9.5273 C   0  0  2  0  0  0  0  0  0  0  0  0
   -1.6533   23.2725   10.6026 C   0  0  2  0  0  0  0  0  0  0  0  0
   -0.7810   23.3432   11.8649 C   0  0  2  0  0  0  0  0  0  0  0  0
   -0.7120   24.7794   12.4320 C   0  0  2  0  0  0  0  0  0  0  0  0
   -0.3879   25.8595   11.3799 C   0  0  2  0  0  0  0  0  0  0  0  0
    4.5833   25.6714    5.7897 C   0  0  0  0  0  0  0  0  0  0  0  0
    4.5700   25.1768    7.0996 C   0  0  0  0  0  0  0  0  0  0  0  0
    3.9796   25.9203    8.1196 C   0  0  0  0  0  0  0  0  0  0  0  0
    3.3410   27.1155    7.8077 C   0  0  0  0  0  0  0  0  0  0  0  0
    0.4877   28.1800    7.4982 N   0  0  0  0  0  0  0  0  0  0  0  0
   -0.5683   28.6367    8.0863 C   0  0  0  0  0  0  0  0  0  0  0  0
   -1.3889   27.8077    8.7519 O   0  0  0  0  0  0  0  0  0  0  0  0
   -0.8370   30.0586    7.9869 C   0  0  0  0  0  0  0  0  0  0  0  0
   -1.8063   31.0217    8.4246 N   0  0  0  0  0  0  0  0  0  0  0  0
   -0.3369   32.0964    7.3183 N   0  0  0  0  0  0  0  0  0  0  0  0
    0.0117   30.8437    7.3111 C   0  0  0  0  0  0  0  0  0  0  0  0
    1.1723   30.2779    6.7090 N   0  0  0  0  0  0  0  0  0  0  0  0
    2.5230   28.7213    6.1569 N   0  0  0  0  0  0  0  0  0  0  0  0
    3.2748   27.5814    6.4879 C   0  0  0  0  0  0  0  0  0  0  0  0
    3.9402   26.8738    5.4904 C   0  0  0  0  0  0  0  0  0  0  0  0
   -1.9735   33.0854    8.1591 H   0  0  0  0  0  0  0  0  0  0  0  0
   -0.5409   26.0544    8.0426 H   0  0  0  0  0  0  0  0  0  0  0  0
    0.4539   26.7755    9.3104 H   0  0  0  0  0  0  0  0  0  0  0  0
   -2.2583   26.1252   10.2960 H   0  0  0  0  0  0  0  0  0  0  0  0
   -0.4094   24.0419    9.0636 H   0  0  0  0  0  0  0  0  0  0  0  0
   -2.1062   24.2823    8.7358 H   0  0  0  0  0  0  0  0  0  0  0  0
   -1.6087   22.2706   10.1757 H   0  0  0  0  0  0  0  0  0  0  0  0
   -2.6839   23.4224   10.9164 H   0  0  0  0  0  0  0  0  0  0  0  0
    0.2296   23.0138   11.6177 H   0  0  0  0  0  0  0  0  0  0  0  0
   -1.1516   22.6518   12.6233 H   0  0  0  0  0  0  0  0  0  0  0  0
   -0.0265   24.8114   13.2723 H   0  0  0  0  0  0  0  0  0  0  0  0
   -1.6866   25.0182   12.8622 H   0  0  0  0  0  0  0  0  0  0  0  0
   -0.4741   26.8527   11.8240 H   0  0  0  0  0  0  0  0  0  0  0  0
    0.6710   25.7286   11.1477 H   0  0  0  0  0  0  0  0  0  0  0  0
    5.0649   25.1165    4.9963 H   0  0  0  0  0  0  0  0  0  0  0  0
    3.9850   25.5639    9.1421 H   0  0  0  0  0  0  0  0  0  0  0  0
    2.8431   27.6603    8.5930 H   0  0  0  0  0  0  0  0  0  0  0  0
    0.0884   32.8957    6.8443 H   0  0  0  0  0  0  0  0  0  0  0  0
    3.0039   29.4805    5.6949 H   0  0  0  0  0  0  0  0  0  0  0  0
    3.9276   27.2374    4.4748 H   0  0  0  0  0  0  0  0  0  0  0  0
    5.3085   23.5919    7.4679 S   0  0  2  0  0  0  0  0  0  0  0  0
    6.5991   23.8328    8.1079 O   0  0  0  0  0  0  0  0  0  0  0  0
    5.2145   22.7709    6.2583 O   0  0  0  0  0  0  0  0  0  0  0  0
    4.4939   23.2522    9.5854 H   0  0  0  0  0  0  0  0  0  0  0  0
    4.3223   22.8366    8.6437 N   0  0  0  0  0  0  0  0  0  0  0  0
    3.3402   22.9183    8.3895 H   0  0  0  0  0  0  0  0  0  0  0  0
  1 14  1  0
  1 21  2  0
  1 22  1  0
  2 18  2  0
  2 19  1  0
  2 25  1  0
  3  4  1  0
  3 16  1  0
  3 26  1  6
  3 27  1  0
  4  5  1  0
  4  9  1  0
  4 28  1  1
  5  6  1  0
  5 29  1  6
  5 30  1  0
  6  7  1  0
  6 31  1  6
  6 32  1  0
  7  8  1  0
  7 33  1  6
  7 34  1  0
  8  9  1  0
  8 35  1  1
  8 36  1  0
  9 37  1  1
  9 38  1  0
 10 11  1  0
 10 24  2  0
 10 39  1  0
 11 12  2  0
 11 45  1  0
 12 13  1  0
 12 40  1  0
 13 23  2  0
 13 41  1  0
 14 15  2  0
 15 16  1  0
 15 17  1  0
 17 18  1  0
 17 20  2  0
 19 20  1  0
 19 42  1  0
 20 21  1  0
 22 23  1  0
 22 43  1  0
 23 24  1  0
 24 44  1  0
 45 46  2  0
 45 47  2  0
 45 49  1  1
 48 49  1  0
 49 50  1  0
M  END
