1oiy
     RDKit          3D

 49 52  0  0  1  0  0  0  0  0999 V2000
    1.4217   29.0339    6.7678 C   0  0  0  0  0  0  0  0  0  0  0  0
   -1.4495   32.1629    8.0083 C   0  0  0  0  0  0  0  0  0  0  0  0
   -0.5815   26.6248    8.9778 C   0  0  2  0  0  0  0  0  0  0  0  0
   -1.2497   25.7672   10.0807 C   0  0  1  0  0  0  0  0  0  0  0  0
   -1.3554   24.3310    9.5273 C   0  0  2  0  0  0  0  0  0  0  0  0
   -1.6533   23.2725   10.6026 C   0  0  2  0  0  0  0  0  0  0  0  0
   -0.7810   23.3432   11.8649 C   0  0  2  0  0  0  0  0  0  0  0  0
   -0.7120   24.7794   12.4320 C   0  0  2  0  0  0  0  0  0  0  0  0
   -0.3879   25.8595   11.3799 C   0  0  2  0  0  0  0  0  0  0  0  0
    4.7371   25.7891    5.7133 C   0  0  0  0  0  0  0  0  0  0  0  0
    4.7473   25.2227    6.9990 C   0  0  0  0  0  0  0  0  0  0  0  0
    4.0289   25.8634    8.0180 C   0  0  0  0  0  0  0  0  0  0  0  0
    3.3180   27.0289    7.7449 C   0  0  0  0  0  0  0  0  0  0  0  0
    0.4877   28.1800    7.4982 N   0  0  0  0  0  0  0  0  0  0  0  0
   -0.5683   28.6367    8.0863 C   0  0  0  0  0  0  0  0  0  0  0  0
   -1.3889   27.8077    8.7519 O   0  0  0  0  0  0  0  0  0  0  0  0
   -0.8370   30.0586    7.9869 C   0  0  0  0  0  0  0  0  0  0  0  0
   -1.8063   31.0217    8.4246 N   0  0  0  0  0  0  0  0  0  0  0  0
   -0.3369   32.0964    7.3183 N   0  0  0  0  0  0  0  0  0  0  0  0
    0.0117   30.8437    7.3111 C   0  0  0  0  0  0  0  0  0  0  0  0
    1.1723   30.2779    6.7090 N   0  0  0  0  0  0  0  0  0  0  0  0
    2.5230   28.7213    6.1569 N   0  0  0  0  0  0  0  0  0  0  0  0
    3.2837   27.5750    6.4547 C   0  0  0  0  0  0  0  0  0  0  0  0
    4.0195   26.9564    5.4495 C   0  0  0  0  0  0  0  0  0  0  0  0
   -1.9734   33.0854    8.1590 H   0  0  0  0  0  0  0  0  0  0  0  0
   -0.5403   26.0543    8.0426 H   0  0  0  0  0  0  0  0  0  0  0  0
    0.4537   26.7758    9.3108 H   0  0  0  0  0  0  0  0  0  0  0  0
   -2.2583   26.1252   10.2960 H   0  0  0  0  0  0  0  0  0  0  0  0
   -0.4092   24.0422    9.0637 H   0  0  0  0  0  0  0  0  0  0  0  0
   -2.1059   24.2823    8.7356 H   0  0  0  0  0  0  0  0  0  0  0  0
   -1.6088   22.2706   10.1757 H   0  0  0  0  0  0  0  0  0  0  0  0
   -2.6839   23.4224   10.9164 H   0  0  0  0  0  0  0  0  0  0  0  0
    0.2296   23.0139   11.6176 H   0  0  0  0  0  0  0  0  0  0  0  0
   -1.1515   22.6518   12.6233 H   0  0  0  0  0  0  0  0  0  0  0  0
   -0.0266   24.8115   13.2724 H   0  0  0  0  0  0  0  0  0  0  0  0
   -1.6867   25.0181   12.8621 H   0  0  0  0  0  0  0  0  0  0  0  0
   -0.4741   26.8527   11.8239 H   0  0  0  0  0  0  0  0  0  0  0  0
    0.6710   25.7287   11.1475 H   0  0  0  0  0  0  0  0  0  0  0  0
    5.2944   25.3348    4.9050 H   0  0  0  0  0  0  0  0  0  0  0  0
    4.0088   25.4724    9.0272 H   0  0  0  0  0  0  0  0  0  0  0  0
    2.7695   27.4994    8.5461 H   0  0  0  0  0  0  0  0  0  0  0  0
    0.0885   32.8956    6.8443 H   0  0  0  0  0  0  0  0  0  0  0  0
    2.9792   29.4646    5.6465 H   0  0  0  0  0  0  0  0  0  0  0  0
    4.0305   27.3767    4.4562 H   0  0  0  0  0  0  0  0  0  0  0  0
    5.5348   23.9571    7.2567 C   0  0  0  0  0  0  0  0  0  0  0  0
    5.9384   23.2464    6.3403 O   0  0  0  0  0  0  0  0  0  0  0  0
    6.4469   22.8401    8.6207 H   0  0  0  0  0  0  0  0  0  0  0  0
    5.8610   23.6473    8.5028 N   0  0  0  0  0  0  0  0  0  0  0  0
    5.3011   23.9290    9.3090 H   0  0  0  0  0  0  0  0  0  0  0  0
  1 14  1  0
  1 21  2  0
  1 22  1  0
  2 18  2  0
  2 19  1  0
  2 25  1  0
  3  4  1  0
  3 16  1  0
  3 26  1  6
  3 27  1  0
  4  5  1  0
  4  9  1  0
  4 28  1  1
  5  6  1  0
  5 29  1  6
  5 30  1  0
  6  7  1  0
  6 31  1  6
  6 32  1  0
  7  8  1  0
  7 33  1  6
  7 34  1  0
  8  9  1  0
  8 35  1  1
  8 36  1  0
  9 37  1  1
  9 38  1  0
 10 11  1  0
 10 24  2  0
 10 39  1  0
 11 12  2  0
 11 45  1  0
 12 13  1  0
 12 40  1  0
 13 23  2  0
 13 41  1  0
 14 15  2  0
 15 16  1  0
 15 17  1  0
 17 18  1  0
 17 20  2  0
 19 20  1  0
 19 42  1  0
 20 21  1  0
 22 23  1  0
 22 43  1  0
 23 24  1  0
 24 44  1  0
 45 46  2  0
 45 48  1  0
 47 48  1  0
 48 49  1  0
M  END
