30
     RDKit          3D

 51 54  0  0  1  0  0  0  0  0999 V2000
    1.4217   29.0339    6.7678 C   0  0  0  0  0  0  0  0  0  0  0  0
   -1.4495   32.1629    8.0083 C   0  0  0  0  0  0  0  0  0  0  0  0
   -0.5815   26.6248    8.9778 C   0  0  2  0  0  0  0  0  0  0  0  0
   -1.2497   25.7672   10.0807 C   0  0  1  0  0  0  0  0  0  0  0  0
   -1.3554   24.3310    9.5273 C   0  0  2  0  0  0  0  0  0  0  0  0
   -1.6533   23.2725   10.6026 C   0  0  2  0  0  0  0  0  0  0  0  0
   -0.7810   23.3432   11.8649 C   0  0  2  0  0  0  0  0  0  0  0  0
   -0.7120   24.7794   12.4320 C   0  0  2  0  0  0  0  0  0  0  0  0
   -0.3879   25.8595   11.3799 C   0  0  2  0  0  0  0  0  0  0  0  0
    4.6816   25.7983    5.5182 C   0  0  0  0  0  0  0  0  0  0  0  0
    4.7085   25.1959    6.7779 C   0  0  0  0  0  0  0  0  0  0  0  0
    4.0614   25.7968    7.8586 C   0  0  0  0  0  0  0  0  0  0  0  0
    3.3503   26.9768    7.6598 C   0  0  0  0  0  0  0  0  0  0  0  0
    0.4877   28.1800    7.4982 N   0  0  0  0  0  0  0  0  0  0  0  0
   -0.5683   28.6367    8.0863 C   0  0  0  0  0  0  0  0  0  0  0  0
   -1.3889   27.8077    8.7519 O   0  0  0  0  0  0  0  0  0  0  0  0
   -0.8370   30.0586    7.9869 C   0  0  0  0  0  0  0  0  0  0  0  0
   -1.8063   31.0217    8.4246 N   0  0  0  0  0  0  0  0  0  0  0  0
   -0.3369   32.0964    7.3183 N   0  0  0  0  0  0  0  0  0  0  0  0
    0.0117   30.8437    7.3111 C   0  0  0  0  0  0  0  0  0  0  0  0
    1.1723   30.2779    6.7090 N   0  0  0  0  0  0  0  0  0  0  0  0
    2.5230   28.7213    6.1569 N   0  0  0  0  0  0  0  0  0  0  0  0
    3.2804   27.5653    6.3913 C   0  0  0  0  0  0  0  0  0  0  0  0
    3.9799   26.9867    5.3366 C   0  0  0  0  0  0  0  0  0  0  0  0
   -1.9734   33.0854    8.1591 H   0  0  0  0  0  0  0  0  0  0  0  0
   -0.5408   26.0544    8.0426 H   0  0  0  0  0  0  0  0  0  0  0  0
    0.4538   26.7757    9.3107 H   0  0  0  0  0  0  0  0  0  0  0  0
   -2.2583   26.1252   10.2960 H   0  0  0  0  0  0  0  0  0  0  0  0
   -0.4095   24.0419    9.0635 H   0  0  0  0  0  0  0  0  0  0  0  0
   -2.1062   24.2823    8.7358 H   0  0  0  0  0  0  0  0  0  0  0  0
   -1.6088   22.2706   10.1757 H   0  0  0  0  0  0  0  0  0  0  0  0
   -2.6839   23.4224   10.9164 H   0  0  0  0  0  0  0  0  0  0  0  0
    0.2295   23.0137   11.6178 H   0  0  0  0  0  0  0  0  0  0  0  0
   -1.1517   22.6519   12.6233 H   0  0  0  0  0  0  0  0  0  0  0  0
   -0.0267   24.8115   13.2725 H   0  0  0  0  0  0  0  0  0  0  0  0
   -1.6867   25.0181   12.8621 H   0  0  0  0  0  0  0  0  0  0  0  0
   -0.4742   26.8526   11.8240 H   0  0  0  0  0  0  0  0  0  0  0  0
    0.6710   25.7287   11.1477 H   0  0  0  0  0  0  0  0  0  0  0  0
    5.2014   25.3560    4.6795 H   0  0  0  0  0  0  0  0  0  0  0  0
    4.0951   25.3467    8.8435 H   0  0  0  0  0  0  0  0  0  0  0  0
    2.8330   27.4249    8.4943 H   0  0  0  0  0  0  0  0  0  0  0  0
    0.0884   32.8958    6.8445 H   0  0  0  0  0  0  0  0  0  0  0  0
    2.9623   29.4638    5.6314 H   0  0  0  0  0  0  0  0  0  0  0  0
    3.9707   27.4491    4.3653 H   0  0  0  0  0  0  0  0  0  0  0  0
    5.5653   23.6492    7.0224 S   0  0  2  0  0  0  0  0  0  0  0  0
    6.4900   23.8350    8.1420 O   0  0  0  0  0  0  0  0  0  0  0  0
    6.0738   23.1942    5.7238 O   0  0  0  0  0  0  0  0  0  0  0  0
    4.6718   21.4942    7.6673 H   0  0  0  0  0  0  0  0  0  0  0  0
    3.8376   22.8262    8.5094 H   0  0  0  0  0  0  0  0  0  0  0  0
    4.2271   22.4781    7.5557 C   0  0  1  0  0  0  0  0  0  0  0  0
    3.4520   22.4696    6.7947 H   0  0  0  0  0  0  0  0  0  0  0  0
  1 14  1  0
  1 21  2  0
  1 22  1  0
  2 18  2  0
  2 19  1  0
  2 25  1  0
  3  4  1  0
  3 16  1  0
  3 26  1  6
  3 27  1  0
  4  5  1  0
  4  9  1  0
  4 28  1  1
  5  6  1  0
  5 29  1  6
  5 30  1  0
  6  7  1  0
  6 31  1  6
  6 32  1  0
  7  8  1  0
  7 33  1  6
  7 34  1  0
  8  9  1  0
  8 35  1  1
  8 36  1  0
  9 37  1  1
  9 38  1  0
 10 11  1  0
 10 24  2  0
 10 39  1  0
 11 12  2  0
 45 11  1  6
 12 13  1  0
 12 40  1  0
 13 23  2  0
 13 41  1  0
 14 15  2  0
 15 16  1  0
 15 17  1  0
 17 18  1  0
 17 20  2  0
 19 20  1  0
 19 42  1  0
 20 21  1  0
 22 23  1  0
 22 43  1  0
 23 24  1  0
 24 44  1  0
 45 46  2  0
 45 47  2  0
 45 50  1  0
 50 48  1  1
 49 50  1  0
 50 51  1  0
M  END
