32
     RDKit          3D

 54 57  0  0  1  0  0  0  0  0999 V2000
    1.4217   29.0339    6.7678 C   0  0  0  0  0  0  0  0  0  0  0  0
   -1.4495   32.1629    8.0083 C   0  0  0  0  0  0  0  0  0  0  0  0
   -0.5815   26.6248    8.9778 C   0  0  2  0  0  0  0  0  0  0  0  0
   -1.2497   25.7672   10.0807 C   0  0  1  0  0  0  0  0  0  0  0  0
   -1.3554   24.3310    9.5273 C   0  0  2  0  0  0  0  0  0  0  0  0
   -1.6533   23.2725   10.6026 C   0  0  2  0  0  0  0  0  0  0  0  0
   -0.7810   23.3432   11.8649 C   0  0  2  0  0  0  0  0  0  0  0  0
   -0.7120   24.7794   12.4320 C   0  0  2  0  0  0  0  0  0  0  0  0
   -0.3879   25.8595   11.3799 C   0  0  2  0  0  0  0  0  0  0  0  0
    4.5751   25.6592    5.7236 C   0  0  0  0  0  0  0  0  0  0  0  0
    4.5414   25.1340    7.0246 C   0  0  0  0  0  0  0  0  0  0  0  0
    3.9566   25.8662    8.0588 C   0  0  0  0  0  0  0  0  0  0  0  0
    3.3285   27.0745    7.7776 C   0  0  0  0  0  0  0  0  0  0  0  0
    0.4877   28.1800    7.4982 N   0  0  0  0  0  0  0  0  0  0  0  0
   -0.5683   28.6367    8.0863 C   0  0  0  0  0  0  0  0  0  0  0  0
   -1.3889   27.8077    8.7519 O   0  0  0  0  0  0  0  0  0  0  0  0
   -0.8370   30.0586    7.9869 C   0  0  0  0  0  0  0  0  0  0  0  0
   -1.8063   31.0217    8.4246 N   0  0  0  0  0  0  0  0  0  0  0  0
   -0.3369   32.0964    7.3183 N   0  0  0  0  0  0  0  0  0  0  0  0
    0.0117   30.8437    7.3111 C   0  0  0  0  0  0  0  0  0  0  0  0
    1.1723   30.2779    6.7090 N   0  0  0  0  0  0  0  0  0  0  0  0
    2.5230   28.7213    6.1569 N   0  0  0  0  0  0  0  0  0  0  0  0
    3.2672   27.5740    6.4726 C   0  0  0  0  0  0  0  0  0  0  0  0
    3.9361   26.8851    5.4681 C   0  0  0  0  0  0  0  0  0  0  0  0
   -1.9735   33.0854    8.1591 H   0  0  0  0  0  0  0  0  0  0  0  0
   -0.5409   26.0544    8.0426 H   0  0  0  0  0  0  0  0  0  0  0  0
    0.4538   26.7756    9.3107 H   0  0  0  0  0  0  0  0  0  0  0  0
   -2.2583   26.1252   10.2960 H   0  0  0  0  0  0  0  0  0  0  0  0
   -0.4096   24.0418    9.0634 H   0  0  0  0  0  0  0  0  0  0  0  0
   -2.1063   24.2822    8.7359 H   0  0  0  0  0  0  0  0  0  0  0  0
   -1.6088   22.2706   10.1758 H   0  0  0  0  0  0  0  0  0  0  0  0
   -2.6838   23.4224   10.9164 H   0  0  0  0  0  0  0  0  0  0  0  0
    0.2296   23.0137   11.6178 H   0  0  0  0  0  0  0  0  0  0  0  0
   -1.1517   22.6519   12.6233 H   0  0  0  0  0  0  0  0  0  0  0  0
   -0.0266   24.8114   13.2724 H   0  0  0  0  0  0  0  0  0  0  0  0
   -1.6866   25.0181   12.8621 H   0  0  0  0  0  0  0  0  0  0  0  0
   -0.4742   26.8526   11.8241 H   0  0  0  0  0  0  0  0  0  0  0  0
    0.6710   25.7287   11.1479 H   0  0  0  0  0  0  0  0  0  0  0  0
    2.8359   27.6041    8.5774 H   0  0  0  0  0  0  0  0  0  0  0  0
    0.0886   32.8955    6.8442 H   0  0  0  0  0  0  0  0  0  0  0  0
    3.0011   29.4771    5.6869 H   0  0  0  0  0  0  0  0  0  0  0  0
    3.9204   27.3079    4.4788 H   0  0  0  0  0  0  0  0  0  0  0  0
    5.2467   23.5327    7.3915 S   0  0  2  0  0  0  0  0  0  0  0  0
    6.5941   23.7481    7.9160 O   0  0  0  0  0  0  0  0  0  0  0  0
    5.0199   22.6434    6.2499 O   0  0  0  0  0  0  0  0  0  0  0  0
    3.3359   22.8933    8.4739 H   0  0  0  0  0  0  0  0  0  0  0  0
    4.3332   22.8515    8.6715 N   0  0  0  0  0  0  0  0  0  0  0  0
    4.5492   23.2871    9.5956 H   0  0  0  0  0  0  0  0  0  0  0  0
    3.9532   25.3951    9.3388 O   0  0  0  0  0  0  0  0  0  0  0  0
    3.2920   26.3701   10.1136 C   0  0  1  0  0  0  0  0  0  0  0  0
    3.2575   26.0377   11.1814 H   0  0  0  0  0  0  0  0  0  0  0  0
    3.8445   27.3405   10.0427 H   0  0  0  0  0  0  0  0  0  0  0  0
    2.2492   26.5059    9.7314 H   0  0  0  0  0  0  0  0  0  0  0  0
    5.0863   25.1229    4.9378 H   0  0  0  0  0  0  0  0  0  0  0  0
  1 14  1  0
  1 21  2  0
  1 22  1  0
  2 18  2  0
  2 19  1  0
  2 25  1  0
  3  4  1  0
  3 16  1  0
  3 26  1  6
  3 27  1  0
  4  5  1  0
  4  9  1  0
  4 28  1  1
  5  6  1  0
  5 29  1  6
  5 30  1  0
  6  7  1  0
  6 31  1  6
  6 32  1  0
  7  8  1  0
  7 33  1  6
  7 34  1  0
  8  9  1  0
  8 35  1  1
  8 36  1  0
  9 37  1  1
  9 38  1  0
 10 11  1  0
 10 24  2  0
 10 54  1  0
 11 12  2  0
 11 43  1  0
 12 13  1  0
 12 49  1  0
 13 23  2  0
 13 39  1  0
 14 15  2  0
 15 16  1  0
 15 17  1  0
 17 18  1  0
 17 20  2  0
 19 20  1  0
 19 40  1  0
 20 21  1  0
 22 23  1  0
 22 41  1  0
 23 24  1  0
 24 42  1  0
 43 44  2  0
 43 45  2  0
 43 47  1  1
 46 47  1  0
 47 48  1  0
 49 50  1  0
 50 51  1  1
 50 52  1  0
 50 53  1  0
M  END
