17
     RDKit          3D

 45 48  0  0  1  0  0  0  0  0999 V2000
    1.4217   29.0339    6.7678 C   0  0  0  0  0  0  0  0  0  0  0  0
   -1.4495   32.1629    8.0083 C   0  0  0  0  0  0  0  0  0  0  0  0
   -0.5815   26.6248    8.9778 C   0  0  2  0  0  0  0  0  0  0  0  0
   -1.2497   25.7672   10.0807 C   0  0  1  0  0  0  0  0  0  0  0  0
   -1.3554   24.3310    9.5273 C   0  0  2  0  0  0  0  0  0  0  0  0
   -1.6533   23.2725   10.6026 C   0  0  2  0  0  0  0  0  0  0  0  0
   -0.7810   23.3432   11.8649 C   0  0  2  0  0  0  0  0  0  0  0  0
   -0.7120   24.7794   12.4320 C   0  0  2  0  0  0  0  0  0  0  0  0
   -0.3879   25.8595   11.3799 C   0  0  2  0  0  0  0  0  0  0  0  0
    4.6931   25.7852    5.5625 C   0  0  0  0  0  0  0  0  0  0  0  0
    4.7700   25.2309    6.8385 C   0  0  0  0  0  0  0  0  0  0  0  0
    4.1127   25.8418    7.9048 C   0  0  0  0  0  0  0  0  0  0  0  0
    3.3753   27.0051    7.6833 C   0  0  0  0  0  0  0  0  0  0  0  0
    0.4877   28.1800    7.4982 N   0  0  0  0  0  0  0  0  0  0  0  0
   -0.5683   28.6367    8.0863 C   0  0  0  0  0  0  0  0  0  0  0  0
   -1.3889   27.8077    8.7519 O   0  0  0  0  0  0  0  0  0  0  0  0
   -0.8370   30.0586    7.9869 C   0  0  0  0  0  0  0  0  0  0  0  0
   -1.8063   31.0217    8.4246 N   0  0  0  0  0  0  0  0  0  0  0  0
   -0.3369   32.0964    7.3183 N   0  0  0  0  0  0  0  0  0  0  0  0
    0.0117   30.8437    7.3111 C   0  0  0  0  0  0  0  0  0  0  0  0
    1.1723   30.2779    6.7090 N   0  0  0  0  0  0  0  0  0  0  0  0
    2.5230   28.7213    6.1569 N   0  0  0  0  0  0  0  0  0  0  0  0
    3.2845   27.5686    6.4019 C   0  0  0  0  0  0  0  0  0  0  0  0
    3.9699   26.9584    5.3521 C   0  0  0  0  0  0  0  0  0  0  0  0
   -1.9735   33.0854    8.1590 H   0  0  0  0  0  0  0  0  0  0  0  0
   -0.5409   26.0544    8.0426 H   0  0  0  0  0  0  0  0  0  0  0  0
    0.4540   26.7756    9.3104 H   0  0  0  0  0  0  0  0  0  0  0  0
   -2.2583   26.1252   10.2960 H   0  0  0  0  0  0  0  0  0  0  0  0
   -0.4094   24.0422    9.0635 H   0  0  0  0  0  0  0  0  0  0  0  0
   -2.1062   24.2824    8.7358 H   0  0  0  0  0  0  0  0  0  0  0  0
   -1.6090   22.2706   10.1758 H   0  0  0  0  0  0  0  0  0  0  0  0
   -2.6838   23.4225   10.9164 H   0  0  0  0  0  0  0  0  0  0  0  0
    0.2296   23.0138   11.6179 H   0  0  0  0  0  0  0  0  0  0  0  0
   -1.1517   22.6519   12.6234 H   0  0  0  0  0  0  0  0  0  0  0  0
   -0.0265   24.8114   13.2723 H   0  0  0  0  0  0  0  0  0  0  0  0
   -1.6866   25.0182   12.8621 H   0  0  0  0  0  0  0  0  0  0  0  0
   -0.4740   26.8527   11.8239 H   0  0  0  0  0  0  0  0  0  0  0  0
    0.6710   25.7286   11.1475 H   0  0  0  0  0  0  0  0  0  0  0  0
    5.5615   24.9263    4.1052 Br  0  0  0  0  0  0  0  0  0  0  0  0
    5.3514   24.3372    6.9999 H   0  0  0  0  0  0  0  0  0  0  0  0
    4.1715   25.4179    8.8992 H   0  0  0  0  0  0  0  0  0  0  0  0
    2.8603   27.4655    8.5128 H   0  0  0  0  0  0  0  0  0  0  0  0
    0.0882   32.8958    6.8443 H   0  0  0  0  0  0  0  0  0  0  0  0
    2.9690   29.4722    5.6483 H   0  0  0  0  0  0  0  0  0  0  0  0
    3.9336   27.3830    4.3646 H   0  0  0  0  0  0  0  0  0  0  0  0
  1 14  1  0
  1 21  2  0
  1 22  1  0
  2 18  2  0
  2 19  1  0
  2 25  1  0
  3  4  1  0
  3 16  1  0
  3 26  1  6
  3 27  1  0
  4  5  1  0
  4  9  1  0
  4 28  1  1
  5  6  1  0
  5 29  1  6
  5 30  1  0
  6  7  1  0
  6 31  1  6
  6 32  1  0
  7  8  1  0
  7 33  1  6
  7 34  1  0
  8  9  1  0
  8 35  1  1
  8 36  1  0
  9 37  1  1
  9 38  1  0
 10 11  1  0
 10 24  2  0
 10 39  1  0
 11 12  2  0
 11 40  1  0
 12 13  1  0
 12 41  1  0
 13 23  2  0
 13 42  1  0
 14 15  2  0
 15 16  1  0
 15 17  1  0
 17 18  1  0
 17 20  2  0
 19 20  1  0
 19 43  1  0
 20 21  1  0
 22 23  1  0
 22 44  1  0
 23 24  1  0
 24 45  1  0
M  END
