22
     RDKit          3D

 49 52  0  0  1  0  0  0  0  0999 V2000
    1.4217   29.0339    6.7678 C   0  0  0  0  0  0  0  0  0  0  0  0
   -1.4495   32.1629    8.0083 C   0  0  0  0  0  0  0  0  0  0  0  0
   -0.5815   26.6248    8.9778 C   0  0  2  0  0  0  0  0  0  0  0  0
   -1.2497   25.7672   10.0807 C   0  0  1  0  0  0  0  0  0  0  0  0
   -1.3554   24.3310    9.5273 C   0  0  2  0  0  0  0  0  0  0  0  0
   -1.6533   23.2725   10.6026 C   0  0  2  0  0  0  0  0  0  0  0  0
   -0.7810   23.3432   11.8649 C   0  0  2  0  0  0  0  0  0  0  0  0
   -0.7120   24.7794   12.4320 C   0  0  2  0  0  0  0  0  0  0  0  0
   -0.3879   25.8595   11.3799 C   0  0  2  0  0  0  0  0  0  0  0  0
    4.5645   25.7175    5.8742 C   0  0  0  0  0  0  0  0  0  0  0  0
    4.5693   25.2991    7.2078 C   0  0  0  0  0  0  0  0  0  0  0  0
    3.8859   26.0328    8.1732 C   0  0  0  0  0  0  0  0  0  0  0  0
    3.2067   27.2039    7.8467 C   0  0  0  0  0  0  0  0  0  0  0  0
    0.4877   28.1800    7.4982 N   0  0  0  0  0  0  0  0  0  0  0  0
   -0.5683   28.6367    8.0863 C   0  0  0  0  0  0  0  0  0  0  0  0
   -1.3889   27.8077    8.7519 O   0  0  0  0  0  0  0  0  0  0  0  0
   -0.8370   30.0586    7.9869 C   0  0  0  0  0  0  0  0  0  0  0  0
   -1.8063   31.0217    8.4246 N   0  0  0  0  0  0  0  0  0  0  0  0
   -0.3369   32.0964    7.3183 N   0  0  0  0  0  0  0  0  0  0  0  0
    0.0117   30.8437    7.3111 C   0  0  0  0  0  0  0  0  0  0  0  0
    1.1723   30.2779    6.7090 N   0  0  0  0  0  0  0  0  0  0  0  0
    2.5230   28.7213    6.1569 N   0  0  0  0  0  0  0  0  0  0  0  0
    3.1983   27.6077    6.5176 C   0  0  0  0  0  0  0  0  0  0  0  0
    3.8667   26.8692    5.5465 C   0  0  0  0  0  0  0  0  0  0  0  0
   -2.0467   33.0328    8.2386 H   0  0  0  0  0  0  0  0  0  0  0  0
   -0.5191   26.0464    8.0561 H   0  0  0  0  0  0  0  0  0  0  0  0
    0.4152   26.9224    9.3034 H   0  0  0  0  0  0  0  0  0  0  0  0
   -2.2496   26.1518   10.2818 H   0  0  0  0  0  0  0  0  0  0  0  0
   -0.4299   24.0729    9.0125 H   0  0  0  0  0  0  0  0  0  0  0  0
   -2.1291   24.2951    8.7604 H   0  0  0  0  0  0  0  0  0  0  0  0
   -1.5697   22.2788   10.1625 H   0  0  0  0  0  0  0  0  0  0  0  0
   -2.7037   23.3341   10.8871 H   0  0  0  0  0  0  0  0  0  0  0  0
    0.2257   22.9973   11.6300 H   0  0  0  0  0  0  0  0  0  0  0  0
   -1.1854   22.6728   12.6233 H   0  0  0  0  0  0  0  0  0  0  0  0
    0.0302   24.8176   13.2294 H   0  0  0  0  0  0  0  0  0  0  0  0
   -1.6567   25.0212   12.9189 H   0  0  0  0  0  0  0  0  0  0  0  0
   -0.5111   26.8465   11.8257 H   0  0  0  0  0  0  0  0  0  0  0  0
    0.6685   25.8027   11.1174 H   0  0  0  0  0  0  0  0  0  0  0  0
    5.1042   24.4047    7.4912 H   0  0  0  0  0  0  0  0  0  0  0  0
    3.8689   25.4975    9.8077 S   0  0  0  0  0  0  0  0  0  0  0  0
    2.7056   27.7704    8.6177 H   0  0  0  0  0  0  0  0  0  0  0  0
    0.0635   32.9355    6.9237 H   0  0  0  0  0  0  0  0  0  0  0  0
    2.8732   29.3097    5.4144 H   0  0  0  0  0  0  0  0  0  0  0  0
    3.8351   27.2082    4.5216 H   0  0  0  0  0  0  0  0  0  0  0  0
    5.0964   25.1468    5.1274 H   0  0  0  0  0  0  0  0  0  0  0  0
    2.8796   26.6376   10.8066 C   0  0  1  0  0  0  0  0  0  0  0  0
    2.8688   26.2889   11.8697 H   0  0  0  0  0  0  0  0  0  0  0  0
    3.3257   27.6623   10.7546 H   0  0  0  0  0  0  0  0  0  0  0  0
    1.8326   26.6662   10.4128 H   0  0  0  0  0  0  0  0  0  0  0  0
  1 14  1  0
  1 21  2  0
  1 22  1  0
  2 18  2  0
  2 19  1  0
  2 25  1  0
  3  4  1  0
  3 16  1  0
  3 26  1  6
  3 27  1  0
  4  5  1  0
  4  9  1  0
  4 28  1  1
  5  6  1  0
  5 29  1  6
  5 30  1  0
  6  7  1  0
  6 31  1  6
  6 32  1  0
  7  8  1  0
  7 33  1  6
  7 34  1  0
  8  9  1  0
  8 35  1  1
  8 36  1  0
  9 37  1  1
  9 38  1  0
 10 11  1  0
 10 24  2  0
 10 45  1  0
 11 12  2  0
 11 39  1  0
 12 13  1  0
 12 40  1  0
 13 23  2  0
 13 41  1  0
 14 15  2  0
 15 16  1  0
 15 17  1  0
 17 18  1  0
 17 20  2  0
 19 20  1  0
 19 42  1  0
 20 21  1  0
 22 23  1  0
 22 43  1  0
 23 24  1  0
 24 44  1  0
 40 46  1  0
 46 47  1  1
 46 48  1  0
 46 49  1  0
M  END
