ligand_19
     RDKit          3D

 81 86  0  0  1  0  0  0  0  0999 V2000
   13.6770   -4.7910   -0.4110 C   0  0  0  0  0  0  0  0  0  0  0  0
   14.9530   -4.3290   -0.0310 C   0  0  0  0  0  0  0  0  0  0  0  0
   15.9780   -4.5500   -0.9440 C   0  0  0  0  0  0  0  0  0  0  0  0
   15.7460   -5.1810   -2.1610 C   0  0  0  0  0  0  0  0  0  0  0  0
   14.4860   -5.6010   -2.5560 C   0  0  0  0  0  0  0  0  0  0  0  0
   13.4370   -5.4280   -1.6490 C   0  0  0  0  0  0  0  0  0  0  0  0
   14.3460   -6.2730   -3.7480 O   0  0  0  0  0  0  0  0  0  0  0  0
   14.0570   -5.5600   -4.8780 C   0  0  0  0  0  0  0  0  0  0  0  0
   13.5980   -4.2670   -4.8120 C   0  0  0  0  0  0  0  0  0  0  0  0
   13.3010   -3.5760   -5.9590 C   0  0  0  0  0  0  0  0  0  0  0  0
   13.4660   -4.1610   -7.2050 C   0  0  0  0  0  0  0  0  0  0  0  0
   13.9300   -5.4340   -7.2540 C   0  0  0  0  0  0  0  0  0  0  0  0
   14.2220   -6.1590   -6.1200 C   0  0  0  0  0  0  0  0  0  0  0  0
   13.3344   -1.9816   -5.5202 C   0  0  2  0  0  0  0  0  0  0  0  0
   12.7203   -1.3512   -4.0650 C   0  0  2  0  0  0  0  0  0  0  0  0
   13.2605   -0.5063   -2.7845 N   0  0  0  0  0  0  0  0  0  0  0  0
   14.6939   -0.4798   -2.4306 C   0  0  1  0  0  0  0  0  0  0  0  0
   15.5281    0.5283   -3.2549 C   0  0  2  0  0  0  0  0  0  0  0  0
   17.0276    0.4911   -2.8977 C   0  0  2  0  0  0  0  0  0  0  0  0
   17.2573    0.6904   -1.3885 C   0  0  2  0  0  0  0  0  0  0  0  0
   16.4490   -0.3212   -0.5549 C   0  0  2  0  0  0  0  0  0  0  0  0
   14.9496   -0.2850   -0.9149 C   0  0  2  0  0  0  0  0  0  0  0  0
   12.2559   -0.5994   -1.8803 C   0  0  0  0  0  0  0  0  0  0  0  0
   11.1285   -0.1596   -2.1094 O   0  0  0  0  0  0  0  0  0  0  0  0
   12.4910   -1.3930   -0.5870 C   0  0  2  0  0  0  0  0  0  0  0  0
   11.1860   -1.9160   -0.0140 C   0  0  2  0  0  0  0  0  0  0  0  0
   11.5690   -2.4910    1.3560 C   0  0  2  0  0  0  0  0  0  0  0  0
   12.7550   -3.3510    1.2710 N   0  0  0  0  0  0  0  0  0  0  0  0
   12.5420   -4.6210    0.5800 C   0  0  2  0  0  0  0  0  0  0  0  0
   14.0690   -3.0410    1.7170 C   0  0  0  0  0  0  0  0  0  0  0  0
   14.3290   -2.1188    2.6365 N   0  0  0  0  0  0  0  0  0  0  0  0
   15.1600   -3.6570    1.1820 N   0  0  0  0  0  0  0  0  0  0  0  0
   10.4080   -3.3510    1.8530 C   0  0  1  0  0  0  0  0  0  0  0  0
   10.9920   -4.1960    2.9750 C   0  0  2  0  0  0  0  0  0  0  0  0
    9.9560   -5.0840    3.6420 C   0  0  2  0  0  0  0  0  0  0  0  0
    8.8030   -4.2450    4.1870 C   0  0  2  0  0  0  0  0  0  0  0  0
    8.2430   -3.4390    3.0240 C   0  0  2  0  0  0  0  0  0  0  0  0
    9.2940   -2.4830    2.4520 C   0  0  2  0  0  0  0  0  0  0  0  0
   11.8076   -1.6950    2.0629 H   0  0  0  0  0  0  0  0  0  0  0  0
   15.9571   -3.8447    1.7727 H   0  0  0  0  0  0  0  0  0  0  0  0
   16.9859   -4.2308   -0.7191 H   0  0  0  0  0  0  0  0  0  0  0  0
   16.5691   -5.3498   -2.8407 H   0  0  0  0  0  0  0  0  0  0  0  0
   12.4575   -5.7966   -1.9190 H   0  0  0  0  0  0  0  0  0  0  0  0
   13.5271   -3.7778   -3.8563 H   0  0  0  0  0  0  0  0  0  0  0  0
   13.3286   -3.5878   -8.1113 H   0  0  0  0  0  0  0  0  0  0  0  0
   14.0870   -5.8939   -8.2194 H   0  0  0  0  0  0  0  0  0  0  0  0
   14.5842   -7.1741   -6.1887 H   0  0  0  0  0  0  0  0  0  0  0  0
   12.8039   -1.4679   -6.3231 H   0  0  0  0  0  0  0  0  0  0  0  0
   14.3653   -1.6426   -5.6254 H   0  0  0  0  0  0  0  0  0  0  0  0
   12.1252   -2.1862   -3.6857 H   0  0  0  0  0  0  0  0  0  0  0  0
   11.9414   -0.6799   -4.4377 H   0  0  0  0  0  0  0  0  0  0  0  0
   15.0512   -1.4801   -2.6848 H   0  0  0  0  0  0  0  0  0  0  0  0
   15.1380    1.5347   -3.0908 H   0  0  0  0  0  0  0  0  0  0  0  0
   15.3999    0.3331   -4.3205 H   0  0  0  0  0  0  0  0  0  0  0  0
   17.5612    1.2597   -3.4601 H   0  0  0  0  0  0  0  0  0  0  0  0
   17.4554   -0.4622   -3.2132 H   0  0  0  0  0  0  0  0  0  0  0  0
   16.5951   -0.1142    0.5069 H   0  0  0  0  0  0  0  0  0  0  0  0
   16.8593   -1.3180   -0.7340 H   0  0  0  0  0  0  0  0  0  0  0  0
   14.7486   -1.1414   -0.2906 H   0  0  0  0  0  0  0  0  0  0  0  0
   14.4917    0.6272   -0.5249 H   0  0  0  0  0  0  0  0  0  0  0  0
   12.8427   -0.6950    0.1708 H   0  0  0  0  0  0  0  0  0  0  0  0
   13.1533   -2.2138   -0.8494 H   0  0  0  0  0  0  0  0  0  0  0  0
   10.7389   -2.6530   -0.6853 H   0  0  0  0  0  0  0  0  0  0  0  0
   10.4407   -1.1247    0.1103 H   0  0  0  0  0  0  0  0  0  0  0  0
   12.6432   -5.4923    1.2230 H   0  0  0  0  0  0  0  0  0  0  0  0
   11.5956   -4.6768    0.0462 H   0  0  0  0  0  0  0  0  0  0  0  0
   15.2416   -1.6925    2.7190 H   0  0  0  0  0  0  0  0  0  0  0  0
   13.5855   -1.8048    3.2473 H   0  0  0  0  0  0  0  0  0  0  0  0
    9.9668   -3.9862    1.0813 H   0  0  0  0  0  0  0  0  0  0  0  0
   11.3868   -3.5290    3.7465 H   0  0  0  0  0  0  0  0  0  0  0  0
   11.7958   -4.8965    2.8309 H   0  0  0  0  0  0  0  0  0  0  0  0
   10.4062   -5.6486    4.4616 H   0  0  0  0  0  0  0  0  0  0  0  0
    9.5813   -5.8289    2.9363 H   0  0  0  0  0  0  0  0  0  0  0  0
    9.1397   -3.5872    4.9911 H   0  0  0  0  0  0  0  0  0  0  0  0
    8.0312   -4.8886    4.6137 H   0  0  0  0  0  0  0  0  0  0  0  0
    7.3910   -2.8556    3.3790 H   0  0  0  0  0  0  0  0  0  0  0  0
    7.8402   -4.0954    2.2491 H   0  0  0  0  0  0  0  0  0  0  0  0
    8.8350   -1.8564    1.6854 H   0  0  0  0  0  0  0  0  0  0  0  0
    9.6659   -1.8077    3.2258 H   0  0  0  0  0  0  0  0  0  0  0  0
   16.9691    1.7036   -1.1084 H   0  0  0  0  0  0  0  0  0  0  0  0
   18.3183    0.5788   -1.1652 H   0  0  0  0  0  0  0  0  0  0  0  0
  1  6  1  0
  1 29  1  0
  1  2  2  0
  2 32  1  0
  2  3  1  0
  3  4  2  0
  3 41  1  0
  4  5  1  0
  4 42  1  0
  5  6  2  0
  5  7  1  0
  6 43  1  0
  7  8  1  0
  8 13  1  0
  8  9  2  0
  9 10  1  0
  9 44  1  0
 10 11  2  0
 10 14  1  0
 11 12  1  0
 11 45  1  0
 12 13  2  0
 12 46  1  0
 13 47  1  0
 14 15  1  0
 14 48  1  6
 14 49  1  0
 15 16  1  0
 15 50  1  1
 15 51  1  0
 16 17  1  0
 16 23  1  0
 17 22  1  0
 17 18  1  0
 17 52  1  6
 18 19  1  0
 18 53  1  6
 18 54  1  0
 19 20  1  0
 19 55  1  6
 19 56  1  0
 20 21  1  0
 20 80  1  1
 20 81  1  0
 21 22  1  0
 21 57  1  1
 21 58  1  0
 22 59  1  1
 22 60  1  0
 23 24  2  0
 23 25  1  0
 25 26  1  0
 25 61  1  1
 25 62  1  0
 26 27  1  0
 26 63  1  6
 26 64  1  0
 27 39  1  1
 27 28  1  0
 27 33  1  0
 28 29  1  0
 28 30  1  0
 29 65  1  1
 29 66  1  0
 30 31  1  0
 30 32  2  0
 31 67  1  0
 31 68  1  0
 32 40  1  0
 33 38  1  0
 33 34  1  0
 33 69  1  6
 34 35  1  0
 34 70  1  1
 34 71  1  0
 35 36  1  0
 35 72  1  1
 35 73  1  0
 36 37  1  0
 36 74  1  1
 36 75  1  0
 37 38  1  0
 37 76  1  1
 37 77  1  0
 38 78  1  6
 38 79  1  0
M  CHG  1  32   1
M  END
