ligand_18
     RDKit          3D

 80 84  0  0  1  0  0  0  0  0999 V2000
   13.1990    1.2030   -3.3040 C   0  0  1  0  0  0  0  0  0  0  0  0
   13.4180    0.1330   -2.3360 N   0  0  0  0  0  0  0  0  0  0  0  0
   12.3310   -0.3090   -1.6250 C   0  0  0  0  0  0  0  0  0  0  0  0
   11.2240    0.1720   -1.8190 O   0  0  0  0  0  0  0  0  0  0  0  0
   12.4910   -1.3930   -0.5870 C   0  0  2  0  0  0  0  0  0  0  0  0
   11.1860   -1.9160   -0.0140 C   0  0  2  0  0  0  0  0  0  0  0  0
   11.5690   -2.4910    1.3560 C   0  0  1  0  0  0  0  0  0  0  0  0
   10.4080   -3.3510    1.8530 C   0  0  1  0  0  0  0  0  0  0  0  0
   10.9920   -4.1960    2.9750 C   0  0  2  0  0  0  0  0  0  0  0  0
    9.9560   -5.0840    3.6420 C   0  0  2  0  0  0  0  0  0  0  0  0
    8.8030   -4.2450    4.1870 C   0  0  2  0  0  0  0  0  0  0  0  0
    8.2430   -3.4390    3.0240 C   0  0  2  0  0  0  0  0  0  0  0  0
    9.2940   -2.4830    2.4520 C   0  0  2  0  0  0  0  0  0  0  0  0
   12.7550   -3.3510    1.2710 N   0  0  0  0  0  0  0  0  0  0  0  0
   12.5420   -4.6210    0.5800 C   0  0  2  0  0  0  0  0  0  0  0  0
   13.6770   -4.7910   -0.4110 C   0  0  0  0  0  0  0  0  0  0  0  0
   13.4370   -5.4280   -1.6490 C   0  0  0  0  0  0  0  0  0  0  0  0
   14.4860   -5.6010   -2.5560 C   0  0  0  0  0  0  0  0  0  0  0  0
   14.3460   -6.2730   -3.7480 O   0  0  0  0  0  0  0  0  0  0  0  0
   14.0570   -5.5600   -4.8780 C   0  0  0  0  0  0  0  0  0  0  0  0
   14.2220   -6.1590   -6.1200 C   0  0  0  0  0  0  0  0  0  0  0  0
   13.9300   -5.4340   -7.2540 C   0  0  0  0  0  0  0  0  0  0  0  0
   13.4660   -4.1610   -7.2050 C   0  0  0  0  0  0  0  0  0  0  0  0
   13.3010   -3.5760   -5.9590 C   0  0  0  0  0  0  0  0  0  0  0  0
   13.5980   -4.2670   -4.8120 C   0  0  0  0  0  0  0  0  0  0  0  0
   15.7460   -5.1810   -2.1610 C   0  0  0  0  0  0  0  0  0  0  0  0
   15.9780   -4.5500   -0.9440 C   0  0  0  0  0  0  0  0  0  0  0  0
   14.9530   -4.3290   -0.0310 C   0  0  0  0  0  0  0  0  0  0  0  0
   15.1600   -3.6570    1.1820 N   0  0  0  0  0  0  0  0  0  0  0  0
   14.0690   -3.0410    1.7170 C   0  0  0  0  0  0  0  0  0  0  0  0
   14.3290   -2.1188    2.6365 N   0  0  0  0  0  0  0  0  0  0  0  0
   14.7460   -0.4680   -2.1900 C   0  0  1  0  0  0  0  0  0  0  0  0
   15.7390    0.2790   -3.0500 C   0  0  2  0  0  0  0  0  0  0  0  0
   16.9860   -0.5670   -3.0090 C   0  0  2  0  0  0  0  0  0  0  0  0
   17.5040   -0.3430   -1.5880 C   0  0  2  0  0  0  0  0  0  0  0  0
   16.5920   -1.1170   -0.6460 C   0  0  2  0  0  0  0  0  0  0  0  0
   15.2600   -0.4190   -0.7600 C   0  0  2  0  0  0  0  0  0  0  0  0
   13.9439    1.9884   -3.1707 H   0  0  0  0  0  0  0  0  0  0  0  0
   13.2824    0.8203   -4.3219 H   0  0  0  0  0  0  0  0  0  0  0  0
   12.2226    1.6812   -3.2120 H   0  0  0  0  0  0  0  0  0  0  0  0
   13.0718   -0.9565    0.2253 H   0  0  0  0  0  0  0  0  0  0  0  0
   13.0747   -2.2087   -1.0028 H   0  0  0  0  0  0  0  0  0  0  0  0
   10.7399   -2.6402   -0.6950 H   0  0  0  0  0  0  0  0  0  0  0  0
   10.4744   -1.0928    0.0560 H   0  0  0  0  0  0  0  0  0  0  0  0
   11.6917   -1.6342    2.0139 H   0  0  0  0  0  0  0  0  0  0  0  0
   10.0893   -3.9879    1.0279 H   0  0  0  0  0  0  0  0  0  0  0  0
   11.4387   -3.5462    3.7280 H   0  0  0  0  0  0  0  0  0  0  0  0
   11.8023   -4.8324    2.6208 H   0  0  0  0  0  0  0  0  0  0  0  0
   10.4185   -5.6545    4.4474 H   0  0  0  0  0  0  0  0  0  0  0  0
    9.5815   -5.8156    2.9240 H   0  0  0  0  0  0  0  0  0  0  0  0
    9.1718   -3.5932    4.9793 H   0  0  0  0  0  0  0  0  0  0  0  0
    8.0634   -4.8945    4.6520 H   0  0  0  0  0  0  0  0  0  0  0  0
    7.3692   -2.8770    3.3447 H   0  0  0  0  0  0  0  0  0  0  0  0
    7.8985   -4.1173    2.2421 H   0  0  0  0  0  0  0  0  0  0  0  0
    8.8631   -1.8326    1.6917 H   0  0  0  0  0  0  0  0  0  0  0  0
    9.7085   -1.8274    3.2201 H   0  0  0  0  0  0  0  0  0  0  0  0
   11.5657   -4.6252    0.0958 H   0  0  0  0  0  0  0  0  0  0  0  0
   12.5456   -5.4114    1.3302 H   0  0  0  0  0  0  0  0  0  0  0  0
   12.4338   -5.7264   -1.9142 H   0  0  0  0  0  0  0  0  0  0  0  0
   14.5762   -7.1746   -6.2126 H   0  0  0  0  0  0  0  0  0  0  0  0
   14.0644   -5.8735   -8.2317 H   0  0  0  0  0  0  0  0  0  0  0  0
   13.2354   -3.6348   -8.1189 H   0  0  0  0  0  0  0  0  0  0  0  0
   12.9356   -2.5706   -5.9106 H   0  0  0  0  0  0  0  0  0  0  0  0
   13.4637   -3.7864   -3.8537 H   0  0  0  0  0  0  0  0  0  0  0  0
   16.5901   -5.2948   -2.8230 H   0  0  0  0  0  0  0  0  0  0  0  0
   16.9567   -4.1789   -0.7099 H   0  0  0  0  0  0  0  0  0  0  0  0
   15.9849   -3.8661    1.7363 H   0  0  0  0  0  0  0  0  0  0  0  0
   15.2888   -1.9314    2.9183 H   0  0  0  0  0  0  0  0  0  0  0  0
   13.5803   -1.7084    3.1849 H   0  0  0  0  0  0  0  0  0  0  0  0
   14.6432   -1.4563   -2.6371 H   0  0  0  0  0  0  0  0  0  0  0  0
   15.8975    1.2839   -2.6552 H   0  0  0  0  0  0  0  0  0  0  0  0
   15.3380    0.4047   -4.0571 H   0  0  0  0  0  0  0  0  0  0  0  0
   17.6751   -0.2586   -3.7946 H   0  0  0  0  0  0  0  0  0  0  0  0
   16.7276   -1.6053   -3.2212 H   0  0  0  0  0  0  0  0  0  0  0  0
   17.4797    0.7221   -1.3660 H   0  0  0  0  0  0  0  0  0  0  0  0
   18.5492   -0.6361   -1.5098 H   0  0  0  0  0  0  0  0  0  0  0  0
   16.9990   -1.1185    0.3654 H   0  0  0  0  0  0  0  0  0  0  0  0
   16.5401   -2.1625   -0.9527 H   0  0  0  0  0  0  0  0  0  0  0  0
   14.5718   -0.8810   -0.0605 H   0  0  0  0  0  0  0  0  0  0  0  0
   15.3459    0.6209   -0.4418 H   0  0  0  0  0  0  0  0  0  0  0  0
  1  2  1  0
  1 38  1  1
  1 39  1  0
  1 40  1  0
  2  3  1  0
  2 32  1  0
  3  4  2  0
  3  5  1  0
  5  6  1  0
  5 41  1  1
  5 42  1  0
  6  7  1  0
  6 43  1  6
  6 44  1  0
  7  8  1  0
  7 14  1  0
  7 45  1  1
  8  9  1  0
  8 13  1  0
  8 46  1  6
  9 10  1  0
  9 47  1  1
  9 48  1  0
 10 11  1  0
 10 49  1  1
 10 50  1  0
 11 12  1  0
 11 51  1  1
 11 52  1  0
 12 13  1  0
 12 53  1  1
 12 54  1  0
 13 55  1  6
 13 56  1  0
 14 15  1  0
 14 30  1  0
 15 16  1  0
 15 57  1  6
 15 58  1  0
 16 17  1  0
 16 28  2  0
 17 18  2  0
 17 59  1  0
 18 19  1  0
 18 26  1  0
 19 20  1  0
 20 21  2  0
 20 25  1  0
 21 22  1  0
 21 60  1  0
 22 23  2  0
 22 61  1  0
 23 24  1  0
 23 62  1  0
 24 25  2  0
 24 63  1  0
 25 64  1  0
 26 27  2  0
 26 65  1  0
 27 28  1  0
 27 66  1  0
 28 29  1  0
 29 30  2  0
 29 67  1  0
 30 31  1  0
 31 68  1  0
 31 69  1  0
 32 33  1  0
 32 37  1  0
 32 70  1  6
 33 34  1  0
 33 71  1  1
 33 72  1  0
 34 35  1  0
 34 73  1  6
 34 74  1  0
 35 36  1  0
 35 75  1  1
 35 76  1  0
 36 37  1  0
 36 77  1  1
 36 78  1  0
 37 79  1  1
 37 80  1  0
M  CHG  1  29   1
M  END
