22250_20_0_ligand
     RDKit          3D

 68 71  0  0  1  0  0  0  0  0999 V2000
   11.4892    0.6176   -0.8877 C   0  0  1  0  0  0  0  0  0  0  0  0
   11.1945    0.8681   -1.9064 H   0  0  0  0  0  0  0  0  0  0  0  0
   10.5931    0.5902   -0.2676 H   0  0  0  0  0  0  0  0  0  0  0  0
   12.1398    1.4122   -0.5237 H   0  0  0  0  0  0  0  0  0  0  0  0
   12.1875   -0.7362   -0.8555 C   0  0  0  0  0  0  0  0  0  0  0  0
   11.8224   -1.6379   -1.6098 O   0  0  0  0  0  0  0  0  0  0  0  0
   13.1926   -0.8607    0.0231 N   0  0  0  0  0  0  0  0  0  0  0  0
   13.4739   -0.0222    0.5229 H   0  0  0  0  0  0  0  0  0  0  0  0
   14.0613   -2.0280    0.1837 C   0  0  2  0  0  0  0  0  0  0  0  0
   13.7760   -2.7928   -0.5410 H   0  0  0  0  0  0  0  0  0  0  0  0
   13.8545   -2.6665    1.5794 C   0  0  1  0  0  0  0  0  0  0  0  0
   14.1348   -1.9631    2.3679 H   0  0  0  0  0  0  0  0  0  0  0  0
   15.5208   -1.6510   -0.1688 C   0  0  1  0  0  0  0  0  0  0  0  0
   15.9569   -1.0432    0.6243 H   0  0  0  0  0  0  0  0  0  0  0  0
   16.1304   -2.5543   -0.2206 H   0  0  0  0  0  0  0  0  0  0  0  0
   12.3945   -3.1239    1.7774 C   0  0  1  0  0  0  0  0  0  0  0  0
   11.7107   -2.2748    1.8134 H   0  0  0  0  0  0  0  0  0  0  0  0
   12.0916   -3.7965    0.9756 H   0  0  0  0  0  0  0  0  0  0  0  0
   15.6210   -0.9232   -1.5045 C   0  0  0  0  0  0  0  0  0  0  0  0
   14.6542   -3.8280    1.6788 O   0  0  0  0  0  0  0  0  0  0  0  0
   15.5767   -3.5674    1.9017 H   0  0  0  0  0  0  0  0  0  0  0  0
   12.2072   -3.8175    3.0711 N   0  0  1  0  0  0  0  0  0  0  0  0
   13.0192   -4.4132    3.2062 H   0  0  0  0  0  0  0  0  0  0  0  0
   15.9610    0.4457   -1.5582 C   0  0  0  0  0  0  0  0  0  0  0  0
   16.2049    0.9883   -0.6569 H   0  0  0  0  0  0  0  0  0  0  0  0
   12.2213   -3.1171    3.8209 H   0  0  0  0  0  0  0  0  0  0  0  0
   10.9871   -4.6566    3.2202 C   0  0  2  0  0  0  0  0  0  0  0  0
   15.9372    1.1326   -2.7893 C   0  0  0  0  0  0  0  0  0  0  0  0
   16.2294    2.4541   -2.8314 F   0  0  0  0  0  0  0  0  0  0  0  0
   11.0070   -5.2333    4.6525 C   0  0  1  0  0  0  0  0  0  0  0  0
   11.8921   -5.8344    4.8290 H   0  0  0  0  0  0  0  0  0  0  0  0
   11.1132   -4.4087    5.3527 H   0  0  0  0  0  0  0  0  0  0  0  0
   11.0458   -5.7976    2.1763 C   0  0  0  0  0  0  0  0  0  0  0  0
   15.5828    0.4543   -3.9721 C   0  0  0  0  0  0  0  0  0  0  0  0
   15.5606    0.9806   -4.9134 H   0  0  0  0  0  0  0  0  0  0  0  0
    9.7402   -6.0432    4.9863 C   0  0  1  0  0  0  0  0  0  0  0  0
   12.0602   -6.7741    2.2828 C   0  0  0  0  0  0  0  0  0  0  0  0
   15.2479   -0.9116   -3.9228 C   0  0  0  0  0  0  0  0  0  0  0  0
   14.8574   -1.5568   -5.0469 F   0  0  0  0  0  0  0  0  0  0  0  0
    9.6470   -6.8892    4.3031 H   0  0  0  0  0  0  0  0  0  0  0  0
    9.8247   -6.4809    5.9805 H   0  0  0  0  0  0  0  0  0  0  0  0
   12.7557   -6.7480    3.0949 H   0  0  0  0  0  0  0  0  0  0  0  0
    8.4931   -5.1535    4.8971 C   0  0  1  0  0  0  0  0  0  0  0  0
    7.5894   -5.7353    5.0863 H   0  0  0  0  0  0  0  0  0  0  0  0
    8.5249   -4.3913    5.6757 H   0  0  0  0  0  0  0  0  0  0  0  0
   12.2326   -7.7862    1.3234 C   0  0  0  0  0  0  0  0  0  0  0  0
   15.2861   -1.5996   -2.6964 C   0  0  0  0  0  0  0  0  0  0  0  0
   15.0175   -2.6423   -2.6748 H   0  0  0  0  0  0  0  0  0  0  0  0
    8.4017   -4.4775    3.5234 C   0  0  1  0  0  0  0  0  0  0  0  0
    8.1420   -5.2312    2.7811 H   0  0  0  0  0  0  0  0  0  0  0  0
    7.5727   -3.7682    3.5213 H   0  0  0  0  0  0  0  0  0  0  0  0
   11.3311   -7.8743    0.2475 C   0  0  0  0  0  0  0  0  0  0  0  0
   11.4355   -8.6578   -0.4894 H   0  0  0  0  0  0  0  0  0  0  0  0
   13.3424   -8.7746    1.4447 C   0  0  0  0  0  0  0  0  0  0  0  0
    9.7155   -3.7556    3.1463 C   0  0  1  0  0  0  0  0  0  0  0  0
    9.8403   -2.9145    3.8332 H   0  0  0  0  0  0  0  0  0  0  0  0
    9.6182   -3.2936    2.1695 H   0  0  0  0  0  0  0  0  0  0  0  0
   10.2901   -6.9324    0.1343 C   0  0  0  0  0  0  0  0  0  0  0  0
    9.5942   -7.0027   -0.6895 H   0  0  0  0  0  0  0  0  0  0  0  0
   13.7132   -9.1678    2.6950 O   0  0  0  0  0  0  0  0  0  0  0  0
   10.1635   -5.8908    1.0741 C   0  0  0  0  0  0  0  0  0  0  0  0
    9.3691   -5.1800    0.9346 H   0  0  0  0  0  0  0  0  0  0  0  0
   14.7269  -10.0637    2.5552 C   0  0  0  0  0  0  0  0  0  0  0  0
   15.0163  -10.2521    1.2175 C   0  0  0  0  0  0  0  0  0  0  0  0
   14.1294   -9.4395    0.5128 C   0  0  0  0  0  0  0  0  0  0  0  0
   15.1444  -10.4835    3.4590 H   0  0  0  0  0  0  0  0  0  0  0  0
   15.7783  -10.8987    0.8049 H   0  0  0  0  0  0  0  0  0  0  0  0
   14.0737   -9.3324   -0.5605 H   0  0  0  0  0  0  0  0  0  0  0  0
  1  5  1  0
  1  2  1  6
  1  3  1  0
  1  4  1  0
  5  7  1  0
  5  6  2  0
  7  9  1  0
  7  8  1  0
  9 11  1  0
  9 13  1  0
  9 10  1  6
 11 16  1  0
 11 20  1  0
 11 12  1  1
 13 19  1  0
 13 14  1  1
 13 15  1  0
 16 22  1  0
 16 17  1  1
 16 18  1  0
 19 24  1  0
 19 47  2  0
 20 21  1  0
 22 27  1  0
 22 23  1  1
 22 26  1  0
 24 28  2  0
 24 25  1  0
 27 30  1  0
 27 55  1  0
 27 33  1  6
 28 34  1  0
 28 29  1  0
 30 36  1  0
 30 31  1  6
 30 32  1  0
 33 37  1  0
 33 61  2  0
 34 38  2  0
 34 35  1  0
 36 43  1  0
 36 40  1  6
 36 41  1  0
 37 46  2  0
 37 42  1  0
 38 47  1  0
 38 39  1  0
 43 49  1  0
 43 44  1  1
 43 45  1  0
 46 52  1  0
 46 54  1  0
 47 48  1  0
 49 55  1  0
 49 50  1  6
 49 51  1  0
 52 58  2  0
 52 53  1  0
 54 60  1  0
 54 65  2  0
 55 56  1  1
 55 57  1  0
 58 61  1  0
 58 59  1  0
 60 63  1  0
 61 62  1  0
 63 64  2  0
 63 66  1  0
 64 65  1  0
 64 67  1  0
 65 68  1  0
M  CHG  1  22   1
M  END
