22251_21_0_ligand
     RDKit          3D

 68 71  0  0  1  0  0  0  0  0999 V2000
   11.4892    0.6176   -0.8877 C   0  0  1  0  0  0  0  0  0  0  0  0
   11.1947    0.8682   -1.9064 H   0  0  0  0  0  0  0  0  0  0  0  0
   10.5930    0.5902   -0.2678 H   0  0  0  0  0  0  0  0  0  0  0  0
   12.1397    1.4121   -0.5235 H   0  0  0  0  0  0  0  0  0  0  0  0
   12.1875   -0.7362   -0.8555 C   0  0  0  0  0  0  0  0  0  0  0  0
   11.8224   -1.6379   -1.6098 O   0  0  0  0  0  0  0  0  0  0  0  0
   13.1926   -0.8607    0.0231 N   0  0  0  0  0  0  0  0  0  0  0  0
   13.4738   -0.0224    0.5232 H   0  0  0  0  0  0  0  0  0  0  0  0
   14.0613   -2.0280    0.1837 C   0  0  2  0  0  0  0  0  0  0  0  0
   13.7759   -2.7929   -0.5409 H   0  0  0  0  0  0  0  0  0  0  0  0
   13.8545   -2.6665    1.5794 C   0  0  1  0  0  0  0  0  0  0  0  0
   14.1348   -1.9632    2.3680 H   0  0  0  0  0  0  0  0  0  0  0  0
   15.5208   -1.6510   -0.1688 C   0  0  1  0  0  0  0  0  0  0  0  0
   15.9569   -1.0432    0.6244 H   0  0  0  0  0  0  0  0  0  0  0  0
   16.1303   -2.5543   -0.2206 H   0  0  0  0  0  0  0  0  0  0  0  0
   12.3945   -3.1239    1.7774 C   0  0  1  0  0  0  0  0  0  0  0  0
   11.7103   -2.2752    1.8131 H   0  0  0  0  0  0  0  0  0  0  0  0
   12.0919   -3.7973    0.9761 H   0  0  0  0  0  0  0  0  0  0  0  0
   15.6210   -0.9232   -1.5045 C   0  0  0  0  0  0  0  0  0  0  0  0
   14.6542   -3.8280    1.6788 O   0  0  0  0  0  0  0  0  0  0  0  0
   15.5765   -3.5675    1.9023 H   0  0  0  0  0  0  0  0  0  0  0  0
   12.2072   -3.8175    3.0711 N   0  0  1  0  0  0  0  0  0  0  0  0
   13.0185   -4.4144    3.2046 H   0  0  0  0  0  0  0  0  0  0  0  0
   15.9610    0.4457   -1.5582 C   0  0  0  0  0  0  0  0  0  0  0  0
   16.2049    0.9883   -0.6569 H   0  0  0  0  0  0  0  0  0  0  0  0
   12.2221   -3.1177    3.8214 H   0  0  0  0  0  0  0  0  0  0  0  0
   10.9871   -4.6566    3.2202 C   0  0  2  0  0  0  0  0  0  0  0  0
   15.9372    1.1326   -2.7893 C   0  0  0  0  0  0  0  0  0  0  0  0
   16.2294    2.4541   -2.8314 F   0  0  0  0  0  0  0  0  0  0  0  0
   11.0070   -5.2333    4.6525 C   0  0  1  0  0  0  0  0  0  0  0  0
   11.8924   -5.8333    4.8303 H   0  0  0  0  0  0  0  0  0  0  0  0
   11.1124   -4.4083    5.3522 H   0  0  0  0  0  0  0  0  0  0  0  0
   11.0458   -5.7976    2.1763 C   0  0  0  0  0  0  0  0  0  0  0  0
   15.5828    0.4543   -3.9721 C   0  0  0  0  0  0  0  0  0  0  0  0
   15.5606    0.9806   -4.9134 H   0  0  0  0  0  0  0  0  0  0  0  0
    9.7402   -6.0432    4.9863 C   0  0  1  0  0  0  0  0  0  0  0  0
   12.0602   -6.7741    2.2828 C   0  0  0  0  0  0  0  0  0  0  0  0
   15.2479   -0.9116   -3.9228 C   0  0  0  0  0  0  0  0  0  0  0  0
   14.8574   -1.5568   -5.0469 F   0  0  0  0  0  0  0  0  0  0  0  0
    9.6471   -6.8890    4.3028 H   0  0  0  0  0  0  0  0  0  0  0  0
    9.8246   -6.4810    5.9804 H   0  0  0  0  0  0  0  0  0  0  0  0
   12.7505   -6.7406    3.0973 H   0  0  0  0  0  0  0  0  0  0  0  0
    8.4931   -5.1535    4.8971 C   0  0  1  0  0  0  0  0  0  0  0  0
    7.5895   -5.7354    5.0862 H   0  0  0  0  0  0  0  0  0  0  0  0
    8.5250   -4.3913    5.6756 H   0  0  0  0  0  0  0  0  0  0  0  0
   12.2326   -7.7862    1.3234 C   0  0  0  0  0  0  0  0  0  0  0  0
   15.2861   -1.5996   -2.6964 C   0  0  0  0  0  0  0  0  0  0  0  0
   15.0174   -2.6423   -2.6747 H   0  0  0  0  0  0  0  0  0  0  0  0
    8.4017   -4.4775    3.5234 C   0  0  1  0  0  0  0  0  0  0  0  0
    8.1426   -5.2314    2.7810 H   0  0  0  0  0  0  0  0  0  0  0  0
    7.5727   -3.7683    3.5211 H   0  0  0  0  0  0  0  0  0  0  0  0
   11.3311   -7.8743    0.2475 C   0  0  0  0  0  0  0  0  0  0  0  0
   11.4195   -8.6541   -0.4937 H   0  0  0  0  0  0  0  0  0  0  0  0
   13.3287   -8.8043    1.4371 C   0  0  0  0  0  0  0  0  0  0  0  0
    9.7155   -3.7556    3.1463 C   0  0  1  0  0  0  0  0  0  0  0  0
    9.8403   -2.9143    3.8329 H   0  0  0  0  0  0  0  0  0  0  0  0
    9.6184   -3.2943    2.1691 H   0  0  0  0  0  0  0  0  0  0  0  0
   10.2901   -6.9324    0.1343 C   0  0  0  0  0  0  0  0  0  0  0  0
    9.5936   -7.0029   -0.6889 H   0  0  0  0  0  0  0  0  0  0  0  0
   13.7110   -9.7544    0.4880 C   0  0  0  0  0  0  0  0  0  0  0  0
   10.1635   -5.8908    1.0741 C   0  0  0  0  0  0  0  0  0  0  0  0
    9.3693   -5.1799    0.9347 H   0  0  0  0  0  0  0  0  0  0  0  0
   14.7246  -10.5364    0.9395 O   0  0  0  0  0  0  0  0  0  0  0  0
   15.0324  -10.0863    2.1779 C   0  0  0  0  0  0  0  0  0  0  0  0
   14.2126   -9.0211    2.5050 C   0  0  0  0  0  0  0  0  0  0  0  0
   13.3590   -9.9827   -0.5089 H   0  0  0  0  0  0  0  0  0  0  0  0
   15.8352  -10.5966    2.6923 H   0  0  0  0  0  0  0  0  0  0  0  0
   14.2576   -8.4586    3.4234 H   0  0  0  0  0  0  0  0  0  0  0  0
  1  5  1  0
  1  2  1  6
  1  3  1  0
  1  4  1  0
  5  7  1  0
  5  6  2  0
  7  9  1  0
  7  8  1  0
  9 11  1  0
  9 13  1  0
  9 10  1  6
 11 16  1  0
 11 20  1  0
 11 12  1  1
 13 19  1  0
 13 14  1  1
 13 15  1  0
 16 22  1  0
 16 17  1  1
 16 18  1  0
 19 24  1  0
 19 47  2  0
 20 21  1  0
 22 27  1  0
 22 23  1  1
 22 26  1  0
 24 28  2  0
 24 25  1  0
 27 30  1  0
 27 55  1  0
 27 33  1  6
 28 34  1  0
 28 29  1  0
 30 36  1  0
 30 31  1  6
 30 32  1  0
 33 37  1  0
 33 61  2  0
 34 38  2  0
 34 35  1  0
 36 43  1  0
 36 40  1  6
 36 41  1  0
 37 46  2  0
 37 42  1  0
 38 47  1  0
 38 39  1  0
 43 49  1  0
 43 44  1  1
 43 45  1  0
 46 52  1  0
 46 54  1  0
 47 48  1  0
 49 55  1  0
 49 50  1  6
 49 51  1  0
 52 58  2  0
 52 53  1  0
 54 60  2  0
 54 65  1  0
 55 56  1  1
 55 57  1  0
 58 61  1  0
 58 59  1  0
 60 63  1  0
 60 66  1  0
 61 62  1  0
 63 64  1  0
 64 65  2  0
 64 67  1  0
 65 68  1  0
M  CHG  1  22   1
M  END
