22
     RDKit          3D

 51 54  0  0  1  0  0  0  0  0999 V2000
   32.6673    3.5521  204.0691 C   0  0  0  0  0  0  0  0  0  0  0  0
   31.9052    2.1215  202.8347 H   0  0  0  0  0  0  0  0  0  0  0  0
   33.2235    0.0727  204.1535 C   0  0  0  0  0  0  0  0  0  0  0  0
   32.6065   -1.3943  205.9781 C   0  0  0  0  0  0  0  0  0  0  0  0
   31.9070   -3.7763  205.4706 C   0  0  2  0  0  0  0  0  0  0  0  0
   32.6818    2.3689  203.4297 N   0  0  0  0  0  0  0  0  0  0  0  0
   33.7457    1.3717  203.5334 C   0  0  2  0  0  0  0  0  0  0  0  0
   33.0902   -0.1064  205.5034 C   0  0  0  0  0  0  0  0  0  0  0  0
   32.3934   -2.3887  205.0940 C   0  0  0  0  0  0  0  0  0  0  0  0
   32.6077   -2.2070  203.7584 N   0  0  0  0  0  0  0  0  0  0  0  0
   32.9082   -1.0042  203.1987 C   0  0  0  0  0  0  0  0  0  0  0  0
   32.9107   -0.8873  201.9783 O   0  0  0  0  0  0  0  0  0  0  0  0
   33.6230    3.9704  204.7304 O   0  0  0  0  0  0  0  0  0  0  0  0
   32.3975   -1.5108  207.0310 H   0  0  0  0  0  0  0  0  0  0  0  0
   31.8046   -3.8898  206.5513 H   0  0  0  0  0  0  0  0  0  0  0  0
   32.6064   -4.5358  205.1174 H   0  0  0  0  0  0  0  0  0  0  0  0
   30.9347   -3.9767  205.0203 H   0  0  0  0  0  0  0  0  0  0  0  0
   34.1935    1.2207  202.5509 H   0  0  0  0  0  0  0  0  0  0  0  0
   34.5832    1.7324  204.1325 H   0  0  0  0  0  0  0  0  0  0  0  0
   32.5702   -2.9858  203.1158 H   0  0  0  0  0  0  0  0  0  0  0  0
   33.4820    0.9468  206.5281 C   0  0  2  0  0  0  0  0  0  0  0  0
   34.4944    1.2901  206.3200 H   0  0  0  0  0  0  0  0  0  0  0  0
   33.4826    0.5613  207.5496 H   0  0  0  0  0  0  0  0  0  0  0  0
   32.8364    1.8224  206.4484 H   0  0  0  0  0  0  0  0  0  0  0  0
   29.0519    5.9918  203.6699 C   0  0  0  0  0  0  0  0  0  0  0  0
   29.4180    5.0490  202.7137 C   0  0  0  0  0  0  0  0  0  0  0  0
   30.5518    4.2537  202.8652 C   0  0  0  0  0  0  0  0  0  0  0  0
   31.3884    4.3506  203.9918 C   0  0  0  0  0  0  0  0  0  0  0  0
   31.0014    5.2710  204.9911 C   0  0  0  0  0  0  0  0  0  0  0  0
   29.8554    6.0878  204.8076 C   0  0  0  0  0  0  0  0  0  0  0  0
   29.8121    6.9204  205.9151 N   0  0  0  0  0  0  0  0  0  0  0  0
   30.7930    3.5775  202.0559 H   0  0  0  0  0  0  0  0  0  0  0  0
   31.5129    5.6795  206.2624 C   0  0  0  0  0  0  0  0  0  0  0  0
   30.8173    6.6559  206.7751 N   0  0  0  0  0  0  0  0  0  0  0  0
   32.3834    5.2956  206.7759 H   0  0  0  0  0  0  0  0  0  0  0  0
   28.3756    4.8882  201.1317 Br  0  0  0  0  0  0  0  0  0  0  0  0
   28.8959    8.0308  206.1902 C   0  0  1  0  0  0  0  0  0  0  0  0
   28.2491    8.0010  207.5888 C   0  0  1  0  0  0  0  0  0  0  0  0
   28.0588    9.4733  207.9895 C   0  0  2  0  0  0  0  0  0  0  0  0
   28.6131   10.3246  206.8360 C   0  0  1  0  0  0  0  0  0  0  0  0
   29.5772    9.4040  206.0927 C   0  0  2  0  0  0  0  0  0  0  0  0
   28.1171    7.9544  205.4301 H   0  0  0  0  0  0  0  0  0  0  0  0
   27.3014    7.4623  207.5763 H   0  0  0  0  0  0  0  0  0  0  0  0
   28.8823    7.5070  208.3275 H   0  0  0  0  0  0  0  0  0  0  0  0
   28.6139    9.6859  208.9040 H   0  0  0  0  0  0  0  0  0  0  0  0
   27.0118    9.6898  208.1936 H   0  0  0  0  0  0  0  0  0  0  0  0
   27.8059   10.6143  206.1650 H   0  0  0  0  0  0  0  0  0  0  0  0
   29.0909   11.2429  207.1789 H   0  0  0  0  0  0  0  0  0  0  0  0
   29.7458    9.7205  205.0627 H   0  0  0  0  0  0  0  0  0  0  0  0
   30.5443    9.3996  206.5993 H   0  0  0  0  0  0  0  0  0  0  0  0
   28.2068    6.6376  203.5132 H   0  0  0  0  0  0  0  0  0  0  0  0
  1  6  1  0
  1 13  2  0
  1 28  1  0
  2  6  1  0
  3  7  1  0
  3  8  2  0
  3 11  1  0
  4  8  1  0
  4  9  2  0
  4 14  1  0
  5  9  1  0
  5 15  1  1
  5 16  1  0
  5 17  1  0
  6  7  1  0
  7 18  1  6
  7 19  1  0
  8 21  1  0
  9 10  1  0
 10 11  1  0
 10 20  1  0
 11 12  2  0
 21 22  1  6
 21 23  1  0
 21 24  1  0
 25 26  1  0
 25 30  2  0
 25 51  1  0
 26 27  2  0
 26 36  1  0
 27 28  1  0
 27 32  1  0
 28 29  2  0
 29 30  1  0
 29 33  1  0
 30 31  1  0
 31 34  1  0
 31 37  1  0
 33 34  2  0
 33 35  1  0
 37 38  1  0
 37 41  1  0
 37 42  1  6
 38 39  1  0
 38 43  1  6
 38 44  1  0
 39 40  1  0
 39 45  1  1
 39 46  1  0
 40 41  1  0
 40 47  1  6
 40 48  1  0
 41 49  1  6
 41 50  1  0
M  END
