31
     RDKit          3D

 57 59  0  0  1  0  0  0  0  0999 V2000
   32.3834    3.7331  204.2877 C   0  0  0  0  0  0  0  0  0  0  0  0
   31.2900    2.2232  203.4542 H   0  0  0  0  0  0  0  0  0  0  0  0
   32.9708    0.1318  203.9587 C   0  0  0  0  0  0  0  0  0  0  0  0
   32.6983   -1.6143  205.6200 C   0  0  0  0  0  0  0  0  0  0  0  0
   32.2026   -3.9755  204.8614 C   0  0  2  0  0  0  0  0  0  0  0  0
   32.2147    2.5151  203.7348 N   0  0  0  0  0  0  0  0  0  0  0  0
   33.2967    1.5537  203.4874 C   0  0  2  0  0  0  0  0  0  0  0  0
   33.0054   -0.2312  205.2791 C   0  0  0  0  0  0  0  0  0  0  0  0
   32.5163   -2.5102  204.6326 C   0  0  0  0  0  0  0  0  0  0  0  0
   32.6061   -2.1475  203.3209 N   0  0  0  0  0  0  0  0  0  0  0  0
   32.7073   -0.8600  202.8939 C   0  0  0  0  0  0  0  0  0  0  0  0
   32.6071   -0.6256  201.6930 O   0  0  0  0  0  0  0  0  0  0  0  0
   33.4846    4.1260  204.6759 O   0  0  0  0  0  0  0  0  0  0  0  0
   32.6084   -1.9137  206.6526 H   0  0  0  0  0  0  0  0  0  0  0  0
   31.9032   -4.1680  205.8922 H   0  0  0  0  0  0  0  0  0  0  0  0
   33.0733   -4.5915  204.6377 H   0  0  0  0  0  0  0  0  0  0  0  0
   31.3890   -4.3120  204.2204 H   0  0  0  0  0  0  0  0  0  0  0  0
   33.5624    1.4981  202.4296 H   0  0  0  0  0  0  0  0  0  0  0  0
   34.2127    1.9186  203.9517 H   0  0  0  0  0  0  0  0  0  0  0  0
   32.5378   -2.8301  202.5750 H   0  0  0  0  0  0  0  0  0  0  0  0
   33.3014    0.7490  206.4035 C   0  0  2  0  0  0  0  0  0  0  0  0
   32.5032    1.4854  206.5025 H   0  0  0  0  0  0  0  0  0  0  0  0
   34.1982    1.3200  206.1684 H   0  0  0  0  0  0  0  0  0  0  0  0
   29.0078    6.4328  204.1788 C   0  0  0  0  0  0  0  0  0  0  0  0
   29.2460    5.5408  203.1486 C   0  0  0  0  0  0  0  0  0  0  0  0
   30.2960    4.6403  203.2376 C   0  0  0  0  0  0  0  0  0  0  0  0
   31.1613    4.6378  204.3457 C   0  0  0  0  0  0  0  0  0  0  0  0
   30.9167    5.5585  205.4067 C   0  0  0  0  0  0  0  0  0  0  0  0
   29.8288    6.4711  205.3116 C   0  0  0  0  0  0  0  0  0  0  0  0
   29.5551    7.4398  206.3145 N   0  0  0  0  0  0  0  0  0  0  0  0
   30.4696    3.9632  202.4120 H   0  0  0  0  0  0  0  0  0  0  0  0
   31.8331    5.5886  206.6438 C   0  0  2  0  0  0  0  0  0  0  0  0
   31.6663    6.4540  207.2818 H   0  0  0  0  0  0  0  0  0  0  0  0
   28.1911    5.6286  201.5703 Br  0  0  0  0  0  0  0  0  0  0  0  0
   29.1650   11.2774  206.4680 C   0  0  1  0  0  0  0  0  0  0  0  0
   29.5892    9.8682  206.9133 C   0  0  2  0  0  0  0  0  0  0  0  0
   29.0431    8.7790  205.9534 C   0  0  1  0  0  0  0  0  0  0  0  0
   29.4342    9.1596  204.5059 C   0  0  2  0  0  0  0  0  0  0  0  0
   29.0270   10.6120  204.1787 C   0  0  2  0  0  0  0  0  0  0  0  0
   29.5883   11.5116  205.1305 O   0  0  0  0  0  0  0  0  0  0  0  0
   28.0834   11.4035  206.5478 H   0  0  0  0  0  0  0  0  0  0  0  0
   29.6163   12.0316  207.1134 H   0  0  0  0  0  0  0  0  0  0  0  0
   29.2247    9.7171  207.9294 H   0  0  0  0  0  0  0  0  0  0  0  0
   30.6786    9.8218  206.9514 H   0  0  0  0  0  0  0  0  0  0  0  0
   27.9546    8.7633  206.0393 H   0  0  0  0  0  0  0  0  0  0  0  0
   28.9647    8.4892  203.7908 H   0  0  0  0  0  0  0  0  0  0  0  0
   30.5119    9.0561  204.3691 H   0  0  0  0  0  0  0  0  0  0  0  0
   27.9417   10.7173  204.1548 H   0  0  0  0  0  0  0  0  0  0  0  0
   29.3843   10.9024  203.1923 H   0  0  0  0  0  0  0  0  0  0  0  0
   32.8849    5.6102  206.3657 H   0  0  0  0  0  0  0  0  0  0  0  0
   31.6742    4.6784  207.2180 H   0  0  0  0  0  0  0  0  0  0  0  0
   33.4891    0.2523  207.3558 H   0  0  0  0  0  0  0  0  0  0  0  0
   29.0065    6.8860  207.5480 C   0  0  2  0  0  0  0  0  0  0  0  0
   29.2573    7.5217  208.3945 H   0  0  0  0  0  0  0  0  0  0  0  0
   29.3986    5.8946  207.7795 H   0  0  0  0  0  0  0  0  0  0  0  0
   27.9206    6.8260  207.4972 H   0  0  0  0  0  0  0  0  0  0  0  0
   28.1673    7.1059  204.0961 H   0  0  0  0  0  0  0  0  0  0  0  0
  1  6  1  0
  1 13  2  0
  1 27  1  0
  2  6  1  0
  3  7  1  0
  3  8  2  0
  3 11  1  0
  4  8  1  0
  4  9  2  0
  4 14  1  0
  5  9  1  0
  5 15  1  1
  5 16  1  0
  5 17  1  0
  6  7  1  0
  7 18  1  6
  7 19  1  0
  8 21  1  0
  9 10  1  0
 10 11  1  0
 10 20  1  0
 11 12  2  0
 21 22  1  1
 21 23  1  0
 21 52  1  0
 24 25  1  0
 24 29  2  0
 24 57  1  0
 25 26  2  0
 25 34  1  0
 26 27  1  0
 26 31  1  0
 27 28  2  0
 28 29  1  0
 28 32  1  0
 29 30  1  0
 30 37  1  0
 30 53  1  0
 32 33  1  1
 32 50  1  0
 32 51  1  0
 35 36  1  0
 35 40  1  0
 35 41  1  6
 35 42  1  0
 36 37  1  0
 36 43  1  1
 36 44  1  0
 37 38  1  0
 37 45  1  6
 38 39  1  0
 38 46  1  6
 38 47  1  0
 39 40  1  0
 39 48  1  6
 39 49  1  0
 53 54  1  1
 53 55  1  0
 53 56  1  0
M  END
