31
     RDKit          3D

 39 41  0  0  1  0  0  0  0  0999 V2000
   26.5098   57.2651   83.2408 O   0  0  0  0  0  0  0  0  0  0  0  0
   24.3760   56.8740   85.1060 C   0  0  2  0  0  0  0  0  0  0  0  0
   23.7180   55.4960   84.9520 C   0  0  2  0  0  0  0  0  0  0  0  0
   22.3000   55.7260   88.5720 C   0  0  0  0  0  0  0  0  0  0  0  0
   22.0180   55.3310   87.3410 N   0  0  0  0  0  0  0  0  0  0  0  0
   22.2010   55.5840   84.9080 C   0  0  2  0  0  0  0  0  0  0  0  0
   21.6700   56.1960   86.2050 C   0  0  2  0  0  0  0  0  0  0  0  0
   22.2780   57.5800   86.3210 C   0  0  1  0  0  0  0  0  0  0  0  0
   21.7040   58.2560   87.5510 C   0  0  2  0  0  0  0  0  0  0  0  0
   22.6490   54.8580   89.4960 N   0  0  0  0  0  0  0  0  0  0  0  0
   22.2610   57.3930   89.0490 S   0  0  0  0  0  0  0  0  0  0  0  0
   25.7565   56.7013   85.3353 O   0  0  0  0  0  0  0  0  0  0  0  0
   26.7198   56.9521   84.4028 C   0  0  0  0  0  0  0  0  0  0  0  0
   28.1068   56.8551   84.9178 C   0  0  0  0  0  0  0  0  0  0  0  0
   28.4008   56.0041   85.9638 C   0  0  0  0  0  0  0  0  0  0  0  0
   29.6888   55.9371   86.4328 C   0  0  0  0  0  0  0  0  0  0  0  0
   30.0588   54.8701   87.7438 Cl  0  0  0  0  0  0  0  0  0  0  0  0
   30.6898   56.7171   85.8758 C   0  0  0  0  0  0  0  0  0  0  0  0
   30.3938   57.5671   84.8318 C   0  0  0  0  0  0  0  0  0  0  0  0
   29.0978   57.6351   84.3468 C   0  0  0  0  0  0  0  0  0  0  0  0
   23.8050   57.6460   86.2770 C   0  0  2  0  0  0  0  0  0  0  0  0
   24.2311   57.4475   84.1905 H   0  0  0  0  0  0  0  0  0  0  0  0
   24.0200   54.8555   85.7806 H   0  0  0  0  0  0  0  0  0  0  0  0
   24.0801   55.0213   84.0401 H   0  0  0  0  0  0  0  0  0  0  0  0
   22.0302   54.3476   87.1109 H   0  0  0  0  0  0  0  0  0  0  0  0
   21.7830   54.5855   84.7800 H   0  0  0  0  0  0  0  0  0  0  0  0
   21.8976   56.2030   84.0637 H   0  0  0  0  0  0  0  0  0  0  0  0
   20.5855   56.2852   86.1415 H   0  0  0  0  0  0  0  0  0  0  0  0
   21.9199   58.1472   85.4619 H   0  0  0  0  0  0  0  0  0  0  0  0
   20.6153   58.2337   87.5028 H   0  0  0  0  0  0  0  0  0  0  0  0
   22.0376   59.2932   87.5843 H   0  0  0  0  0  0  0  0  0  0  0  0
   22.8614   55.1742   90.4314 H   0  0  0  0  0  0  0  0  0  0  0  0
   22.7047   53.8751   89.2703 H   0  0  0  0  0  0  0  0  0  0  0  0
   27.6212   55.4001   86.4040 H   0  0  0  0  0  0  0  0  0  0  0  0
   31.6975   56.6576   86.2598 H   0  0  0  0  0  0  0  0  0  0  0  0
   31.1708   58.1769   84.3950 H   0  0  0  0  0  0  0  0  0  0  0  0
   28.8598   58.2946   83.5253 H   0  0  0  0  0  0  0  0  0  0  0  0
   24.1212   58.6872   86.2135 H   0  0  0  0  0  0  0  0  0  0  0  0
   24.2120   57.2481   87.2066 H   0  0  0  0  0  0  0  0  0  0  0  0
  1 13  2  0
  2  3  1  0
  2 12  1  0
  2 21  1  0
  2 22  1  6
  3  6  1  0
  3 23  1  1
  3 24  1  0
  4  5  2  0
  4 10  1  0
  4 11  1  0
  5  7  1  0
  5 25  1  0
  6  7  1  0
  6 26  1  6
  6 27  1  0
  7  8  1  0
  7 28  1  6
  8  9  1  0
  8 21  1  0
  8 29  1  6
  9 11  1  0
  9 30  1  6
  9 31  1  0
 10 32  1  0
 10 33  1  0
 12 13  1  0
 13 14  1  0
 14 15  1  0
 14 20  2  0
 15 16  2  0
 15 34  1  0
 16 17  1  0
 16 18  1  0
 18 19  2  0
 18 35  1  0
 19 20  1  0
 19 36  1  0
 20 37  1  0
 21 38  1  6
 21 39  1  0
M  CHG  1   5   1
M  END
