47neu
     RDKit          3D

 48 50  0  0  1  0  0  0  0  0999 V2000
   75.7005   -8.3852   71.6130 Cl  0  0  0  0  0  0  0  0  0  0  0  0
   75.0789   -8.7869   70.0563 C   0  0  0  0  0  0  0  0  0  0  0  0
   75.1489   -7.8599   69.0204 C   0  0  0  0  0  0  0  0  0  0  0  0
   74.6410   -8.1753   67.7631 C   0  0  0  0  0  0  0  0  0  0  0  0
   74.0387   -9.4206   67.5315 C   0  0  0  0  0  0  0  0  0  0  0  0
   73.4762   -9.7924   66.1600 C   0  0  2  0  0  0  0  0  0  0  0  0
   73.6963   -8.8331   65.0704 N   0  0  0  0  0  0  0  0  0  0  0  0
   74.7797   -8.7754   64.2643 C   0  0  0  0  0  0  0  0  0  0  0  0
   75.6049   -9.6818   64.2760 O   0  0  0  0  0  0  0  0  0  0  0  0
   74.9023   -7.6620   63.4857 N   0  0  0  0  0  0  0  0  0  0  0  0
   76.1664   -7.4522   62.7493 C   0  0  2  0  0  0  0  0  0  0  0  0
   75.8129   -7.1668   61.2763 C   0  0  2  0  0  0  0  0  0  0  0  0
   74.8474   -5.9579   61.0981 C   0  0  1  0  0  0  0  0  0  0  0  0
   74.2183   -5.4889   62.4247 C   0  0  2  0  0  0  0  0  0  0  0  0
   73.8474   -6.6181   63.4083 C   0  0  2  0  0  0  0  0  0  0  0  0
   75.3659   -4.8259   60.3634 O   0  0  0  0  0  0  0  0  0  0  0  0
   76.2741   -3.9258   60.9103 C   0  0  0  0  0  0  0  0  0  0  0  0
   77.3536   -4.3083   61.7031 C   0  0  0  0  0  0  0  0  0  0  0  0
   78.2983   -3.3875   62.1452 C   0  0  0  0  0  0  0  0  0  0  0  0
   78.1638   -2.0354   61.8230 C   0  0  0  0  0  0  0  0  0  0  0  0
   77.0632   -1.6294   61.0618 C   0  0  0  0  0  0  0  0  0  0  0  0
   76.1371   -2.5693   60.6156 C   0  0  0  0  0  0  0  0  0  0  0  0
   73.9548  -10.3439   68.5892 C   0  0  0  0  0  0  0  0  0  0  0  0
   73.1947  -11.8871   68.3895 Cl  0  0  0  0  0  0  0  0  0  0  0  0
   74.4831  -10.0273   69.8408 C   0  0  0  0  0  0  0  0  0  0  0  0
   75.5672   -6.8823   69.2010 H   0  0  0  0  0  0  0  0  0  0  0  0
   74.7029   -7.4307   66.9829 H   0  0  0  0  0  0  0  0  0  0  0  0
   72.4013   -9.9424   66.2607 H   0  0  0  0  0  0  0  0  0  0  0  0
   73.9110  -10.7584   65.9167 H   0  0  0  0  0  0  0  0  0  0  0  0
   72.9783   -7.9582   65.1000 H   0  0  0  0  0  0  0  0  0  0  0  0
   76.8385   -8.3071   62.8024 H   0  0  0  0  0  0  0  0  0  0  0  0
   76.6889   -6.6115   63.2029 H   0  0  0  0  0  0  0  0  0  0  0  0
   75.3692   -8.0660   60.8512 H   0  0  0  0  0  0  0  0  0  0  0  0
   76.7413   -7.0121   60.6988 H   0  0  0  0  0  0  0  0  0  0  0  0
   74.0158   -6.3330   60.4785 H   0  0  0  0  0  0  0  0  0  0  0  0
   73.3405   -4.8745   62.2212 H   0  0  0  0  0  0  0  0  0  0  0  0
   74.9236   -4.8192   62.9476 H   0  0  0  0  0  0  0  0  0  0  0  0
   73.7290   -6.1692   64.3923 H   0  0  0  0  0  0  0  0  0  0  0  0
   72.9002   -7.0775   63.1206 H   0  0  0  0  0  0  0  0  0  0  0  0
   79.1289   -3.7364   62.7452 H   0  0  0  0  0  0  0  0  0  0  0  0
   76.9176   -0.5897   60.8028 H   0  0  0  0  0  0  0  0  0  0  0  0
   74.4186  -10.7419   70.6485 H   0  0  0  0  0  0  0  0  0  0  0  0
   77.5049   -5.3324   61.9572 H   0  0  0  0  0  0  0  0  0  0  0  0
   75.2926   -2.2170   60.0569 H   0  0  0  0  0  0  0  0  0  0  0  0
   79.1763   -1.0448   62.3296 C   0  0  0  0  0  0  0  0  0  0  0  0
   79.1740    0.1574   61.7141 O   0  0  0  0  0  0  0  0  0  0  0  0
   79.9657   -1.2956   63.2314 O   0  0  0  0  0  0  0  0  0  0  0  0
   79.8812    0.6150   62.1683 H   0  0  0  0  0  0  0  0  0  0  0  0
  1  2  1  0
  2  3  2  0
  2 25  1  0
  3  4  1  0
  3 26  1  0
  4  5  2  0
  4 27  1  0
  5  6  1  0
  5 23  1  0
  6  7  1  0
  6 28  1  1
  6 29  1  0
  7  8  1  0
  7 30  1  0
  8  9  2  0
  8 10  1  0
 10 11  1  0
 10 15  1  0
 11 12  1  0
 11 31  1  6
 11 32  1  0
 12 13  1  0
 12 33  1  6
 12 34  1  0
 13 14  1  0
 13 16  1  0
 13 35  1  6
 14 15  1  0
 14 36  1  6
 14 37  1  0
 15 38  1  1
 15 39  1  0
 16 17  1  0
 17 18  2  0
 17 22  1  0
 18 19  1  0
 18 43  1  0
 19 20  2  0
 19 40  1  0
 20 21  1  0
 20 45  1  0
 21 22  2  0
 21 41  1  0
 22 44  1  0
 23 24  1  0
 23 25  2  0
 25 42  1  0
 45 46  1  0
 45 47  2  0
 46 48  1  0
M  END
