47charg
     RDKit          3D

 47 49  0  0  1  0  0  0  0  0999 V2000
   75.7005   -8.3852   71.6130 Cl  0  0  0  0  0  0  0  0  0  0  0  0
   75.0789   -8.7869   70.0563 C   0  0  0  0  0  0  0  0  0  0  0  0
   75.1489   -7.8599   69.0204 C   0  0  0  0  0  0  0  0  0  0  0  0
   74.6410   -8.1753   67.7631 C   0  0  0  0  0  0  0  0  0  0  0  0
   74.0387   -9.4206   67.5315 C   0  0  0  0  0  0  0  0  0  0  0  0
   73.4762   -9.7924   66.1600 C   0  0  2  0  0  0  0  0  0  0  0  0
   73.6963   -8.8331   65.0704 N   0  0  0  0  0  0  0  0  0  0  0  0
   74.7788   -8.7751   64.2647 C   0  0  0  0  0  0  0  0  0  0  0  0
   75.6048   -9.6817   64.2760 O   0  0  0  0  0  0  0  0  0  0  0  0
   74.9022   -7.6620   63.4857 N   0  0  0  0  0  0  0  0  0  0  0  0
   76.1664   -7.4522   62.7493 C   0  0  2  0  0  0  0  0  0  0  0  0
   75.8128   -7.1669   61.2763 C   0  0  2  0  0  0  0  0  0  0  0  0
   74.8472   -5.9577   61.0977 C   0  0  1  0  0  0  0  0  0  0  0  0
   74.2182   -5.4890   62.4247 C   0  0  2  0  0  0  0  0  0  0  0  0
   73.8473   -6.6181   63.4083 C   0  0  2  0  0  0  0  0  0  0  0  0
   75.3651   -4.8270   60.3599 O   0  0  0  0  0  0  0  0  0  0  0  0
   76.2740   -3.9267   60.9065 C   0  0  0  0  0  0  0  0  0  0  0  0
   77.3476   -4.3079   61.7096 C   0  0  0  0  0  0  0  0  0  0  0  0
   78.2901   -3.3823   62.1528 C   0  0  0  0  0  0  0  0  0  0  0  0
   78.1673   -2.0300   61.8192 C   0  0  0  0  0  0  0  0  0  0  0  0
   77.0788   -1.6340   61.0354 C   0  0  0  0  0  0  0  0  0  0  0  0
   76.1450   -2.5714   60.5960 C   0  0  0  0  0  0  0  0  0  0  0  0
   73.9548  -10.3439   68.5892 C   0  0  0  0  0  0  0  0  0  0  0  0
   73.1947  -11.8871   68.3895 Cl  0  0  0  0  0  0  0  0  0  0  0  0
   74.4831  -10.0273   69.8408 C   0  0  0  0  0  0  0  0  0  0  0  0
   75.5672   -6.8823   69.2010 H   0  0  0  0  0  0  0  0  0  0  0  0
   74.7029   -7.4307   66.9829 H   0  0  0  0  0  0  0  0  0  0  0  0
   72.4013   -9.9424   66.2607 H   0  0  0  0  0  0  0  0  0  0  0  0
   73.9110  -10.7584   65.9167 H   0  0  0  0  0  0  0  0  0  0  0  0
   72.9914   -7.9700   65.0968 H   0  0  0  0  0  0  0  0  0  0  0  0
   76.8385   -8.3071   62.8024 H   0  0  0  0  0  0  0  0  0  0  0  0
   76.6889   -6.6115   63.2029 H   0  0  0  0  0  0  0  0  0  0  0  0
   75.3693   -8.0660   60.8512 H   0  0  0  0  0  0  0  0  0  0  0  0
   76.7414   -7.0121   60.6988 H   0  0  0  0  0  0  0  0  0  0  0  0
   74.0157   -6.3331   60.4785 H   0  0  0  0  0  0  0  0  0  0  0  0
   73.3405   -4.8745   62.2212 H   0  0  0  0  0  0  0  0  0  0  0  0
   74.9236   -4.8191   62.9476 H   0  0  0  0  0  0  0  0  0  0  0  0
   73.7291   -6.1692   64.3923 H   0  0  0  0  0  0  0  0  0  0  0  0
   72.9002   -7.0775   63.1206 H   0  0  0  0  0  0  0  0  0  0  0  0
   79.1217   -3.7050   62.7648 H   0  0  0  0  0  0  0  0  0  0  0  0
   76.9665   -0.5902   60.7744 H   0  0  0  0  0  0  0  0  0  0  0  0
   74.4186  -10.7419   70.6485 H   0  0  0  0  0  0  0  0  0  0  0  0
   77.5047   -5.3295   61.9735 H   0  0  0  0  0  0  0  0  0  0  0  0
   75.3088   -2.2103   60.0330 H   0  0  0  0  0  0  0  0  0  0  0  0
   79.1764   -1.0273   62.3008 C   0  0  0  0  0  0  0  0  0  0  0  0
   79.1666    0.1115   61.7778 O   0  0  0  0  0  0  0  0  0  0  0  0
   79.9701   -1.3820   63.2034 O   0  0  0  0  0  0  0  0  0  0  0  0
  1  2  1  0
  2  3  2  0
  2 25  1  0
  3  4  1  0
  3 26  1  0
  4  5  2  0
  4 27  1  0
  5  6  1  0
  5 23  1  0
  6  7  1  0
  6 28  1  1
  6 29  1  0
  7  8  1  0
  7 30  1  0
  8  9  2  0
  8 10  1  0
 10 11  1  0
 10 15  1  0
 11 12  1  0
 11 31  1  6
 11 32  1  0
 12 13  1  0
 12 33  1  6
 12 34  1  0
 13 14  1  0
 13 16  1  0
 13 35  1  6
 14 15  1  0
 14 36  1  6
 14 37  1  0
 15 38  1  1
 15 39  1  0
 16 17  1  0
 17 18  2  0
 17 22  1  0
 18 19  1  0
 18 43  1  0
 19 20  2  0
 19 40  1  0
 20 21  1  0
 20 45  1  0
 21 22  2  0
 21 41  1  0
 22 44  1  0
 23 24  1  0
 23 25  2  0
 25 42  1  0
 45 46  1  0
 45 47  2  0
M  CHG  1  46  -1
M  END
