37_0_ligand
     RDKit          3D

 77 80  0  0  1  0  0  0  0  0999 V2000
   11.4892    0.6176   -0.8877 C   0  0  1  0  0  0  0  0  0  0  0  0
   12.1687    1.4205   -0.6019 H   0  0  0  0  0  0  0  0  0  0  0  0
   11.1215    0.8315   -1.8909 H   0  0  0  0  0  0  0  0  0  0  0  0
   10.6416    0.6178   -0.2026 H   0  0  0  0  0  0  0  0  0  0  0  0
   12.1875   -0.7362   -0.8555 C   0  0  0  0  0  0  0  0  0  0  0  0
   11.8224   -1.6379   -1.6098 O   0  0  0  0  0  0  0  0  0  0  0  0
   13.1926   -0.8607    0.0231 N   0  0  0  0  0  0  0  0  0  0  0  0
   13.4831   -0.0224    0.5217 H   0  0  0  0  0  0  0  0  0  0  0  0
   14.0613   -2.0280    0.1837 C   0  0  2  0  0  0  0  0  0  0  0  0
   13.7784   -2.7983   -0.5399 H   0  0  0  0  0  0  0  0  0  0  0  0
   13.8545   -2.6665    1.5794 C   0  0  1  0  0  0  0  0  0  0  0  0
   14.1345   -1.9620    2.3673 H   0  0  0  0  0  0  0  0  0  0  0  0
   15.5208   -1.6510   -0.1688 C   0  0  1  0  0  0  0  0  0  0  0  0
   15.9561   -1.0431    0.6254 H   0  0  0  0  0  0  0  0  0  0  0  0
   16.1301   -2.5545   -0.2234 H   0  0  0  0  0  0  0  0  0  0  0  0
   12.3935   -3.1233    1.7770 C   0  0  1  0  0  0  0  0  0  0  0  0
   11.7072   -2.2774    1.8078 H   0  0  0  0  0  0  0  0  0  0  0  0
   12.0894   -3.7967    0.9757 H   0  0  0  0  0  0  0  0  0  0  0  0
   15.6210   -0.9232   -1.5045 C   0  0  0  0  0  0  0  0  0  0  0  0
   14.6679   -3.8395    1.6787 O   0  0  0  0  0  0  0  0  0  0  0  0
   15.5929   -3.5498    1.8369 H   0  0  0  0  0  0  0  0  0  0  0  0
   12.2074   -3.8174    3.0716 N   0  0  1  0  0  0  0  0  0  0  0  0
   13.0161   -4.4157    3.2023 H   0  0  0  0  0  0  0  0  0  0  0  0
   15.9610    0.4457   -1.5582 C   0  0  0  0  0  0  0  0  0  0  0  0
   16.2058    0.9873   -0.6566 H   0  0  0  0  0  0  0  0  0  0  0  0
   12.2309   -3.1160    3.8249 H   0  0  0  0  0  0  0  0  0  0  0  0
   10.9869   -4.6571    3.2201 C   0  0  2  0  0  0  0  0  0  0  0  0
   15.9372    1.1326   -2.7893 C   0  0  0  0  0  0  0  0  0  0  0  0
   16.2294    2.4541   -2.8314 F   0  0  0  0  0  0  0  0  0  0  0  0
   11.0069   -5.2331    4.6525 C   0  0  1  0  0  0  0  0  0  0  0  0
   11.9920   -5.5100    4.9415 H   0  0  0  0  0  0  0  0  0  0  0  0
   10.9854   -4.3466    5.2688 H   0  0  0  0  0  0  0  0  0  0  0  0
   11.0459   -5.7977    2.1762 C   0  0  0  0  0  0  0  0  0  0  0  0
   15.5828    0.4543   -3.9721 C   0  0  0  0  0  0  0  0  0  0  0  0
   15.5617    0.9800   -4.9140 H   0  0  0  0  0  0  0  0  0  0  0  0
    9.7403   -6.0431    4.9863 C   0  0  1  0  0  0  0  0  0  0  0  0
   12.0601   -6.7741    2.2826 C   0  0  0  0  0  0  0  0  0  0  0  0
   15.2479   -0.9116   -3.9228 C   0  0  0  0  0  0  0  0  0  0  0  0
   14.8574   -1.5568   -5.0469 F   0  0  0  0  0  0  0  0  0  0  0  0
    9.6411   -6.8714    4.2844 H   0  0  0  0  0  0  0  0  0  0  0  0
    9.8027   -6.5084    5.9650 H   0  0  0  0  0  0  0  0  0  0  0  0
   12.7706   -6.7132    3.0807 H   0  0  0  0  0  0  0  0  0  0  0  0
    8.4931   -5.1535    4.8971 C   0  0  1  0  0  0  0  0  0  0  0  0
    7.6006   -5.7568    5.0670 H   0  0  0  0  0  0  0  0  0  0  0  0
    8.4691   -4.3944    5.6709 H   0  0  0  0  0  0  0  0  0  0  0  0
   12.2168   -7.8019    1.3303 C   0  0  0  0  0  0  0  0  0  0  0  0
   15.2861   -1.5996   -2.6964 C   0  0  0  0  0  0  0  0  0  0  0  0
   15.0146   -2.6430   -2.6721 H   0  0  0  0  0  0  0  0  0  0  0  0
    8.4017   -4.4775    3.5234 C   0  0  1  0  0  0  0  0  0  0  0  0
    8.1448   -5.2313    2.7804 H   0  0  0  0  0  0  0  0  0  0  0  0
    7.5736   -3.7672    3.5142 H   0  0  0  0  0  0  0  0  0  0  0  0
   11.3310   -7.8741    0.2476 C   0  0  0  0  0  0  0  0  0  0  0  0
   11.3975   -8.6868   -0.4397 H   0  0  0  0  0  0  0  0  0  0  0  0
    9.7155   -3.7556    3.1463 C   0  0  1  0  0  0  0  0  0  0  0  0
    9.8396   -2.9056    3.8222 H   0  0  0  0  0  0  0  0  0  0  0  0
    9.6206   -3.3059    2.1628 H   0  0  0  0  0  0  0  0  0  0  0  0
   10.2902   -6.9324    0.1344 C   0  0  0  0  0  0  0  0  0  0  0  0
    9.5724   -7.0228   -0.6674 H   0  0  0  0  0  0  0  0  0  0  0  0
   10.1636   -5.8909    1.0742 C   0  0  0  0  0  0  0  0  0  0  0  0
    9.3443   -5.2105    0.9642 H   0  0  0  0  0  0  0  0  0  0  0  0
   13.0303  -10.9090    0.1336 C   0  0  2  0  0  0  0  0  0  0  0  0
   13.8126   -9.5801    0.2280 C   0  0  2  0  0  0  0  0  0  0  0  0
   13.4599   -8.7030    1.4553 C   0  0  2  0  0  0  0  0  0  0  0  0
   13.4858   -9.5574    2.7406 C   0  0  1  0  0  0  0  0  0  0  0  0
   12.5832  -10.7976    2.6198 C   0  0  1  0  0  0  0  0  0  0  0  0
   13.0515  -11.6859    1.4646 C   0  0  1  0  0  0  0  0  0  0  0  0
   13.4536  -11.5137   -0.6686 H   0  0  0  0  0  0  0  0  0  0  0  0
   11.9965  -10.7238   -0.1548 H   0  0  0  0  0  0  0  0  0  0  0  0
   13.7106   -9.0046   -0.6930 H   0  0  0  0  0  0  0  0  0  0  0  0
   14.8707   -9.8323    0.3102 H   0  0  0  0  0  0  0  0  0  0  0  0
   14.2678   -7.9728    1.5418 H   0  0  0  0  0  0  0  0  0  0  0  0
   14.5087   -9.8876    2.9323 H   0  0  0  0  0  0  0  0  0  0  0  0
   13.2242   -8.9550    3.6058 H   0  0  0  0  0  0  0  0  0  0  0  0
   12.5696  -11.3570    3.5539 H   0  0  0  0  0  0  0  0  0  0  0  0
   11.5518  -10.4940    2.4363 H   0  0  0  0  0  0  0  0  0  0  0  0
   12.4150  -12.5668    1.4217 H   0  0  0  0  0  0  0  0  0  0  0  0
   14.0631  -12.0413    1.6661 H   0  0  0  0  0  0  0  0  0  0  0  0
  1  5  1  0
  1  2  1  1
  1  3  1  0
  1  4  1  0
  5  7  1  0
  5  6  2  0
  7  9  1  0
  7  8  1  0
  9 11  1  0
  9 13  1  0
  9 10  1  6
 11 16  1  0
 11 20  1  0
 11 12  1  1
 13 19  1  0
 13 14  1  1
 13 15  1  0
 16 22  1  0
 16 17  1  1
 16 18  1  0
 19 24  1  0
 19 47  2  0
 20 21  1  0
 22 27  1  0
 22 23  1  1
 22 26  1  0
 24 28  2  0
 24 25  1  0
 27 30  1  0
 27 54  1  0
 27 33  1  6
 28 34  1  0
 28 29  1  0
 30 36  1  0
 30 31  1  6
 30 32  1  0
 33 37  1  0
 33 59  2  0
 34 38  2  0
 34 35  1  0
 36 43  1  0
 36 40  1  6
 36 41  1  0
 37 46  2  0
 37 42  1  0
 38 47  1  0
 38 39  1  0
 43 49  1  0
 43 44  1  1
 43 45  1  0
 46 52  1  0
 46 63  1  0
 47 48  1  0
 49 54  1  0
 49 50  1  6
 49 51  1  0
 52 57  2  0
 52 53  1  0
 54 55  1  1
 54 56  1  0
 57 59  1  0
 57 58  1  0
 59 60  1  0
 61 62  1  0
 61 66  1  0
 61 67  1  6
 61 68  1  0
 62 63  1  0
 62 69  1  6
 62 70  1  0
 63 64  1  0
 63 71  1  1
 64 65  1  0
 64 72  1  1
 64 73  1  0
 65 66  1  0
 65 74  1  1
 65 75  1  0
 66 76  1  6
 66 77  1  0
M  CHG  1  22   1
M  END
