41_0_ligand
     RDKit          3D

 74 77  0  0  1  0  0  0  0  0999 V2000
   11.4892    0.6176   -0.8877 C   0  0  1  0  0  0  0  0  0  0  0  0
   11.1285    0.8348   -1.8927 H   0  0  0  0  0  0  0  0  0  0  0  0
   10.6371    0.6150   -0.2082 H   0  0  0  0  0  0  0  0  0  0  0  0
   12.1668    1.4194   -0.5943 H   0  0  0  0  0  0  0  0  0  0  0  0
   12.1875   -0.7362   -0.8555 C   0  0  0  0  0  0  0  0  0  0  0  0
   11.8224   -1.6379   -1.6098 O   0  0  0  0  0  0  0  0  0  0  0  0
   13.1926   -0.8607    0.0231 N   0  0  0  0  0  0  0  0  0  0  0  0
   13.4825   -0.0230    0.5223 H   0  0  0  0  0  0  0  0  0  0  0  0
   14.0613   -2.0280    0.1837 C   0  0  2  0  0  0  0  0  0  0  0  0
   13.7786   -2.7987   -0.5392 H   0  0  0  0  0  0  0  0  0  0  0  0
   13.8545   -2.6665    1.5794 C   0  0  1  0  0  0  0  0  0  0  0  0
   14.1333   -1.9595    2.3664 H   0  0  0  0  0  0  0  0  0  0  0  0
   15.5208   -1.6510   -0.1688 C   0  0  1  0  0  0  0  0  0  0  0  0
   15.9566   -1.0423    0.6247 H   0  0  0  0  0  0  0  0  0  0  0  0
   16.1303   -2.5541   -0.2248 H   0  0  0  0  0  0  0  0  0  0  0  0
   12.3913   -3.1219    1.7759 C   0  0  1  0  0  0  0  0  0  0  0  0
   11.7048   -2.2762    1.8084 H   0  0  0  0  0  0  0  0  0  0  0  0
   12.0873   -3.7946    0.9741 H   0  0  0  0  0  0  0  0  0  0  0  0
   15.6210   -0.9232   -1.5045 C   0  0  0  0  0  0  0  0  0  0  0  0
   14.6945   -3.8623    1.6782 O   0  0  0  0  0  0  0  0  0  0  0  0
   15.6203   -3.5666    1.8244 H   0  0  0  0  0  0  0  0  0  0  0  0
   12.2077   -3.8171    3.0726 N   0  0  1  0  0  0  0  0  0  0  0  0
   13.0202   -4.4090    3.2077 H   0  0  0  0  0  0  0  0  0  0  0  0
   15.9610    0.4457   -1.5582 C   0  0  0  0  0  0  0  0  0  0  0  0
   16.2063    0.9868   -0.6564 H   0  0  0  0  0  0  0  0  0  0  0  0
   12.2269   -3.1133    3.8247 H   0  0  0  0  0  0  0  0  0  0  0  0
   10.9863   -4.6584    3.2197 C   0  0  2  0  0  0  0  0  0  0  0  0
   15.9372    1.1326   -2.7893 C   0  0  0  0  0  0  0  0  0  0  0  0
   16.2294    2.4541   -2.8314 F   0  0  0  0  0  0  0  0  0  0  0  0
   11.0066   -5.2327    4.6524 C   0  0  1  0  0  0  0  0  0  0  0  0
   11.9908   -5.5076    4.9480 H   0  0  0  0  0  0  0  0  0  0  0  0
   10.9826   -4.3451    5.2674 H   0  0  0  0  0  0  0  0  0  0  0  0
   11.0460   -5.7979    2.1759 C   0  0  0  0  0  0  0  0  0  0  0  0
   15.5828    0.4543   -3.9721 C   0  0  0  0  0  0  0  0  0  0  0  0
   15.5618    0.9799   -4.9140 H   0  0  0  0  0  0  0  0  0  0  0  0
    9.7406   -6.0429    4.9862 C   0  0  1  0  0  0  0  0  0  0  0  0
   12.0599   -6.7742    2.2822 C   0  0  0  0  0  0  0  0  0  0  0  0
   15.2479   -0.9116   -3.9228 C   0  0  0  0  0  0  0  0  0  0  0  0
   14.8574   -1.5568   -5.0469 F   0  0  0  0  0  0  0  0  0  0  0  0
    9.6404   -6.8715    4.2848 H   0  0  0  0  0  0  0  0  0  0  0  0
    9.8026   -6.5080    5.9652 H   0  0  0  0  0  0  0  0  0  0  0  0
   12.7432   -6.7447    3.1063 H   0  0  0  0  0  0  0  0  0  0  0  0
    8.4931   -5.1535    4.8971 C   0  0  1  0  0  0  0  0  0  0  0  0
    7.6005   -5.7567    5.0670 H   0  0  0  0  0  0  0  0  0  0  0  0
    8.4686   -4.3945    5.6710 H   0  0  0  0  0  0  0  0  0  0  0  0
   12.1775   -7.8559    1.3730 C   0  0  0  0  0  0  0  0  0  0  0  0
   15.2861   -1.5996   -2.6964 C   0  0  0  0  0  0  0  0  0  0  0  0
   15.0154   -2.6432   -2.6720 H   0  0  0  0  0  0  0  0  0  0  0  0
    8.4017   -4.4775    3.5234 C   0  0  1  0  0  0  0  0  0  0  0  0
    8.1439   -5.2309    2.7803 H   0  0  0  0  0  0  0  0  0  0  0  0
    7.5736   -3.7670    3.5145 H   0  0  0  0  0  0  0  0  0  0  0  0
   11.3307   -7.8738    0.2479 C   0  0  0  0  0  0  0  0  0  0  0  0
   11.3698   -8.7168   -0.4142 H   0  0  0  0  0  0  0  0  0  0  0  0
    9.7155   -3.7556    3.1463 C   0  0  1  0  0  0  0  0  0  0  0  0
    9.8395   -2.9053    3.8220 H   0  0  0  0  0  0  0  0  0  0  0  0
    9.6205   -3.3052    2.1631 H   0  0  0  0  0  0  0  0  0  0  0  0
   10.2906   -6.9323    0.1346 C   0  0  0  0  0  0  0  0  0  0  0  0
    9.5731   -7.0220   -0.6677 H   0  0  0  0  0  0  0  0  0  0  0  0
   10.1637   -5.8911    1.0743 C   0  0  0  0  0  0  0  0  0  0  0  0
    9.3443   -5.2106    0.9639 H   0  0  0  0  0  0  0  0  0  0  0  0
   15.4449   -9.7563    1.4428 C   0  0  2  0  0  0  0  0  0  0  0  0
   14.5044   -8.5321    1.4367 C   0  0  2  0  0  0  0  0  0  0  0  0
   13.0777   -8.9057    1.5738 N   0  0  0  0  0  0  0  0  0  0  0  0
   12.6089  -10.1879    1.7318 C   0  0  0  0  0  0  0  0  0  0  0  0
   13.5491  -11.1427    1.7394 N   0  0  0  0  0  0  0  0  0  0  0  0
   14.7472  -11.0091    0.9156 C   0  0  1  0  0  0  0  0  0  0  0  0
   15.7873   -9.9420    2.4636 H   0  0  0  0  0  0  0  0  0  0  0  0
   16.3408   -9.5563    0.8536 H   0  0  0  0  0  0  0  0  0  0  0  0
   14.6310   -7.9738    0.5068 H   0  0  0  0  0  0  0  0  0  0  0  0
   14.7441   -7.8614    2.2594 H   0  0  0  0  0  0  0  0  0  0  0  0
   14.4916  -10.9370   -0.1445 H   0  0  0  0  0  0  0  0  0  0  0  0
   15.3716  -11.8812    1.0531 H   0  0  0  0  0  0  0  0  0  0  0  0
   11.4375  -10.5402    1.8713 O   0  0  0  0  0  0  0  0  0  0  0  0
   13.2295  -12.0578    2.0119 H   0  0  0  0  0  0  0  0  0  0  0  0
  1  5  1  0
  1  2  1  6
  1  3  1  0
  1  4  1  0
  5  7  1  0
  5  6  2  0
  7  9  1  0
  7  8  1  0
  9 11  1  0
  9 13  1  0
  9 10  1  6
 11 16  1  0
 11 20  1  0
 11 12  1  1
 13 19  1  0
 13 14  1  1
 13 15  1  0
 16 22  1  0
 16 17  1  1
 16 18  1  0
 19 24  1  0
 19 47  2  0
 20 21  1  0
 22 27  1  0
 22 23  1  1
 22 26  1  0
 24 28  2  0
 24 25  1  0
 27 30  1  0
 27 54  1  0
 27 33  1  6
 28 34  1  0
 28 29  1  0
 30 36  1  0
 30 31  1  6
 30 32  1  0
 33 37  1  0
 33 59  2  0
 34 38  2  0
 34 35  1  0
 36 43  1  0
 36 40  1  6
 36 41  1  0
 37 46  2  0
 37 42  1  0
 38 47  1  0
 38 39  1  0
 43 49  1  0
 43 44  1  1
 43 45  1  0
 46 52  1  0
 46 63  1  0
 47 48  1  0
 49 54  1  0
 49 50  1  6
 49 51  1  0
 52 57  2  0
 52 53  1  0
 54 55  1  1
 54 56  1  0
 57 59  1  0
 57 58  1  0
 59 60  1  0
 61 62  1  0
 61 66  1  0
 61 67  1  1
 61 68  1  0
 62 63  1  0
 62 69  1  6
 62 70  1  0
 63 64  1  0
 64 65  1  0
 64 73  2  0
 65 66  1  0
 65 74  1  0
 66 71  1  6
 66 72  1  0
M  CHG  1  22   1
M  END
