10
     RDKit          3D

 51 53  0  0  1  0  0  0  0  0999 V2000
   16.3682  -15.6641   23.1547 N   0  0  1  0  0  0  0  0  0  0  0  0
   17.6466  -14.9710   23.1480 C   0  0  1  0  0  0  0  0  0  0  0  0
   17.4276  -13.5958   22.5648 C   0  0  0  0  0  0  0  0  0  0  0  0
   16.4819  -12.9041   22.9285 O   0  0  0  0  0  0  0  0  0  0  0  0
   18.1785  -14.9330   24.5831 C   0  0  2  0  0  0  0  0  0  0  0  0
   19.5938  -14.3968   24.6566 C   0  0  0  0  0  0  0  0  0  0  0  0
   20.6559  -15.0524   24.0366 C   0  0  0  0  0  0  0  0  0  0  0  0
   19.8660  -13.2452   25.3785 C   0  0  0  0  0  0  0  0  0  0  0  0
   21.9461  -14.5326   24.1363 C   0  0  0  0  0  0  0  0  0  0  0  0
   21.1523  -12.7174   25.4703 C   0  0  0  0  0  0  0  0  0  0  0  0
   22.2143  -13.3710   24.8493 C   0  0  0  0  0  0  0  0  0  0  0  0
   18.2776  -13.1481   21.6558 N   0  0  0  0  0  0  0  0  0  0  0  0
   18.0538  -11.8279   21.0665 C   0  0  2  0  0  0  0  0  0  0  0  0
   16.7065  -11.7951   20.3870 C   0  0  0  0  0  0  0  0  0  0  0  0
   16.3146  -12.7340   19.6920 O   0  0  0  0  0  0  0  0  0  0  0  0
   19.1870  -11.6412   20.0614 C   0  0  2  0  0  0  0  0  0  0  0  0
   20.2118  -12.7237   20.3839 C   0  0  2  0  0  0  0  0  0  0  0  0
   19.4444  -13.8356   21.0883 C   0  0  2  0  0  0  0  0  0  0  0  0
   15.9416  -10.7216   20.6139 N   0  0  0  0  0  0  0  0  0  0  0  0
   14.6085  -10.5571   20.0270 C   0  0  2  0  0  0  0  0  0  0  0  0
   13.5662  -11.3548   20.7768 C   0  0  0  0  0  0  0  0  0  0  0  0
   13.2504  -12.6554   20.3932 C   0  0  0  0  0  0  0  0  0  0  0  0
   12.3243  -13.3536   21.0639 N   0  0  0  0  0  0  0  0  0  0  0  0
   11.6742  -12.8393   22.1168 C   0  0  0  0  0  0  0  0  0  0  0  0
   11.9447  -11.5469   22.5412 C   0  0  0  0  0  0  0  0  0  0  0  0
   12.8989  -10.8195   21.8466 C   0  0  0  0  0  0  0  0  0  0  0  0
   13.2810   -9.1672   22.3777 Cl  0  0  0  0  0  0  0  0  0  0  0  0
   16.4883  -16.5894   23.5415 H   0  0  0  0  0  0  0  0  0  0  0  0
   15.7076  -15.1476   23.7178 H   0  0  0  0  0  0  0  0  0  0  0  0
   16.0194  -15.7374   22.2097 H   0  0  0  0  0  0  0  0  0  0  0  0
   18.3485  -15.5194   22.5197 H   0  0  0  0  0  0  0  0  0  0  0  0
   18.1486  -15.9365   25.0074 H   0  0  0  0  0  0  0  0  0  0  0  0
   17.5238  -14.3133   25.1959 H   0  0  0  0  0  0  0  0  0  0  0  0
   20.4788  -15.9610   23.4803 H   0  0  0  0  0  0  0  0  0  0  0  0
   19.0686  -12.7285   25.8918 H   0  0  0  0  0  0  0  0  0  0  0  0
   22.7698  -15.0354   23.6516 H   0  0  0  0  0  0  0  0  0  0  0  0
   21.3233  -11.8045   26.0214 H   0  0  0  0  0  0  0  0  0  0  0  0
   23.2255  -12.9969   24.9113 H   0  0  0  0  0  0  0  0  0  0  0  0
   18.1047  -11.0588   21.8372 H   0  0  0  0  0  0  0  0  0  0  0  0
   19.6397  -10.6600   20.2044 H   0  0  0  0  0  0  0  0  0  0  0  0
   18.8045  -11.7940   19.0522 H   0  0  0  0  0  0  0  0  0  0  0  0
   20.9652  -12.3192   21.0598 H   0  0  0  0  0  0  0  0  0  0  0  0
   20.6365  -13.1081   19.4566 H   0  0  0  0  0  0  0  0  0  0  0  0
   19.1094  -14.5652   20.3511 H   0  0  0  0  0  0  0  0  0  0  0  0
   20.0544  -14.2377   21.8973 H   0  0  0  0  0  0  0  0  0  0  0  0
   16.2768   -9.9801   21.2122 H   0  0  0  0  0  0  0  0  0  0  0  0
   14.6291  -10.8762   18.9849 H   0  0  0  0  0  0  0  0  0  0  0  0
   14.3350   -9.5020   20.0381 H   0  0  0  0  0  0  0  0  0  0  0  0
   13.7530  -13.1070   19.5506 H   0  0  0  0  0  0  0  0  0  0  0  0
   10.9367  -13.4316   22.6381 H   0  0  0  0  0  0  0  0  0  0  0  0
   11.4179  -11.1357   23.3895 H   0  0  0  0  0  0  0  0  0  0  0  0
  1  2  1  0
  1 28  1  1
  1 29  1  0
  1 30  1  0
  2  3  1  0
  2  5  1  0
  2 31  1  6
  3  4  2  0
  3 12  1  0
  5  6  1  0
  5 32  1  1
  5 33  1  0
  6  7  2  0
  6  8  1  0
  7  9  1  0
  7 34  1  0
  8 10  2  0
  8 35  1  0
  9 11  2  0
  9 36  1  0
 10 11  1  0
 10 37  1  0
 11 38  1  0
 12 13  1  0
 12 18  1  0
 13 14  1  0
 13 16  1  0
 13 39  1  1
 14 15  2  0
 14 19  1  0
 16 17  1  0
 16 40  1  6
 16 41  1  0
 17 18  1  0
 17 42  1  1
 17 43  1  0
 18 44  1  6
 18 45  1  0
 19 20  1  0
 19 46  1  0
 20 21  1  0
 20 47  1  6
 20 48  1  0
 21 22  2  0
 21 26  1  0
 22 23  1  0
 22 49  1  0
 23 24  2  0
 24 25  1  0
 24 50  1  0
 25 26  2  0
 25 51  1  0
 26 27  1  0
M  CHG  1   1   1
M  END
