11
     RDKit          3D

 55 57  0  0  1  0  0  0  0  0999 V2000
   16.4353  -15.7748   23.0436 N   0  0  1  0  0  0  0  0  0  0  0  0
   17.6488  -14.9812   23.1759 C   0  0  1  0  0  0  0  0  0  0  0  0
   17.3988  -13.6226   22.5776 C   0  0  0  0  0  0  0  0  0  0  0  0
   16.4020  -12.9795   22.8998 O   0  0  0  0  0  0  0  0  0  0  0  0
   18.0421  -14.8889   24.6566 C   0  0  2  0  0  0  0  0  0  0  0  0
   19.4694  -14.3974   24.7814 C   0  0  0  0  0  0  0  0  0  0  0  0
   20.5194  -15.1402   24.2490 C   0  0  0  0  0  0  0  0  0  0  0  0
   19.7367  -13.2081   25.4454 C   0  0  0  0  0  0  0  0  0  0  0  0
   21.8287  -14.6776   24.3706 C   0  0  0  0  0  0  0  0  0  0  0  0
   21.0409  -12.7475   25.5640 C   0  0  0  0  0  0  0  0  0  0  0  0
   22.0919  -13.4853   25.0266 C   0  0  0  0  0  0  0  0  0  0  0  0
   18.2883  -13.1684   21.6877 N   0  0  0  0  0  0  0  0  0  0  0  0
   18.0782  -11.8618   21.0624 C   0  0  2  0  0  0  0  0  0  0  0  0
   16.7560  -11.8531   20.3608 C   0  0  0  0  0  0  0  0  0  0  0  0
   16.4351  -12.8052   19.6542 O   0  0  0  0  0  0  0  0  0  0  0  0
   19.2105  -11.7186   20.0541 C   0  0  2  0  0  0  0  0  0  0  0  0
   20.2511  -12.7614   20.4430 C   0  0  2  0  0  0  0  0  0  0  0  0
   19.5012  -13.8394   21.2097 C   0  0  2  0  0  0  0  0  0  0  0  0
   14.6436  -10.6523   19.9529 C   0  0  2  0  0  0  0  0  0  0  0  0
   13.6559  -11.4293   20.8019 C   0  0  0  0  0  0  0  0  0  0  0  0
   13.4769  -12.7928   20.6267 C   0  0  0  0  0  0  0  0  0  0  0  0
   12.4363  -14.9111   21.1767 C   0  0  1  0  0  0  0  0  0  0  0  0
   11.8768  -12.8532   22.3286 C   0  0  0  0  0  0  0  0  0  0  0  0
   12.0147  -11.4918   22.5518 C   0  0  0  0  0  0  0  0  0  0  0  0
   12.9123  -10.7908   21.7635 C   0  0  0  0  0  0  0  0  0  0  0  0
   15.9648  -10.7968   20.5552 N   0  0  0  0  0  0  0  0  0  0  0  0
   12.6044  -13.4687   21.3841 N   0  0  0  0  0  0  0  0  0  0  0  0
   13.1416   -9.0436   22.0077 Cl  0  0  0  0  0  0  0  0  0  0  0  0
   16.5866  -16.6910   23.4409 H   0  0  0  0  0  0  0  0  0  0  0  0
   15.6785  -15.3175   23.5317 H   0  0  0  0  0  0  0  0  0  0  0  0
   16.1977  -15.8673   22.0663 H   0  0  0  0  0  0  0  0  0  0  0  0
   18.4532  -15.4687   22.6250 H   0  0  0  0  0  0  0  0  0  0  0  0
   17.9554  -15.8729   25.1173 H   0  0  0  0  0  0  0  0  0  0  0  0
   17.3735  -14.1958   25.1673 H   0  0  0  0  0  0  0  0  0  0  0  0
   20.3188  -16.0729   23.7429 H   0  0  0  0  0  0  0  0  0  0  0  0
   18.9275  -12.6351   25.8735 H   0  0  0  0  0  0  0  0  0  0  0  0
   22.6443  -15.2490   23.9526 H   0  0  0  0  0  0  0  0  0  0  0  0
   21.2406  -11.8164   26.0734 H   0  0  0  0  0  0  0  0  0  0  0  0
   23.1086  -13.1328   25.1189 H   0  0  0  0  0  0  0  0  0  0  0  0
   18.1236  -11.0673   21.8071 H   0  0  0  0  0  0  0  0  0  0  0  0
   19.6465  -10.7232   20.1383 H   0  0  0  0  0  0  0  0  0  0  0  0
   18.8350  -11.9372   19.0544 H   0  0  0  0  0  0  0  0  0  0  0  0
   20.9954  -12.3045   21.0952 H   0  0  0  0  0  0  0  0  0  0  0  0
   20.6851  -13.1937   19.5414 H   0  0  0  0  0  0  0  0  0  0  0  0
   19.2242  -14.6419   20.5260 H   0  0  0  0  0  0  0  0  0  0  0  0
   20.0989  -14.1564   22.0643 H   0  0  0  0  0  0  0  0  0  0  0  0
   14.3630   -9.5991   19.9421 H   0  0  0  0  0  0  0  0  0  0  0  0
   14.6577  -11.0645   18.9439 H   0  0  0  0  0  0  0  0  0  0  0  0
   14.0441  -13.3195   19.8735 H   0  0  0  0  0  0  0  0  0  0  0  0
   11.6922  -15.2948   21.8746 H   0  0  0  0  0  0  0  0  0  0  0  0
   12.1046  -15.0955   20.1549 H   0  0  0  0  0  0  0  0  0  0  0  0
   13.3872  -15.4163   21.3462 H   0  0  0  0  0  0  0  0  0  0  0  0
   11.1783  -13.4289   22.9177 H   0  0  0  0  0  0  0  0  0  0  0  0
   11.4314  -11.0090   23.3219 H   0  0  0  0  0  0  0  0  0  0  0  0
   16.2711  -10.0387   21.1480 H   0  0  0  0  0  0  0  0  0  0  0  0
  1  2  1  0
  1 29  1  1
  1 30  1  0
  1 31  1  0
  2  3  1  0
  2  5  1  0
  2 32  1  6
  3  4  2  0
  3 12  1  0
  5  6  1  0
  5 33  1  1
  5 34  1  0
  6  7  2  0
  6  8  1  0
  7  9  1  0
  7 35  1  0
  8 10  2  0
  8 36  1  0
  9 11  2  0
  9 37  1  0
 10 11  1  0
 10 38  1  0
 11 39  1  0
 12 13  1  0
 12 18  1  0
 13 14  1  0
 13 16  1  0
 13 40  1  1
 14 15  2  0
 14 26  1  0
 16 17  1  0
 16 41  1  6
 16 42  1  0
 17 18  1  0
 17 43  1  1
 17 44  1  0
 18 45  1  6
 18 46  1  0
 19 20  1  0
 19 26  1  0
 19 47  1  6
 19 48  1  0
 20 21  2  0
 20 25  1  0
 21 27  1  0
 21 49  1  0
 22 27  1  0
 22 50  1  1
 22 51  1  0
 22 52  1  0
 23 24  1  0
 23 27  2  0
 23 53  1  0
 24 25  2  0
 24 54  1  0
 25 28  1  0
 26 55  1  0
M  CHG  2   1   1  27   1
M  END
