27a
     RDKit          3D

 48 50  0  0  1  0  0  0  0  0999 V2000
  -19.6270   43.2060   86.5890 C   0  0  1  0  0  0  0  0  0  0  0  0
  -20.4520   42.9150   87.8100 C   0  0  0  0  0  0  0  0  0  0  0  0
  -20.1770   42.1170   88.7770 N   0  0  0  0  0  0  0  0  0  0  0  0
  -21.2560   42.2310   89.6130 C   0  0  0  0  0  0  0  0  0  0  0  0
  -22.1290   43.1060   89.0740 C   0  0  0  0  0  0  0  0  0  0  0  0
  -21.6280   43.5390   87.9500 O   0  0  0  0  0  0  0  0  0  0  0  0
  -21.4210   41.5320   90.8730 C   0  0  0  0  0  0  0  0  0  0  0  0
  -22.4670   41.5260   91.4990 O   0  0  0  0  0  0  0  0  0  0  0  0
  -20.3100   40.8710   91.3530 N   0  0  0  0  0  0  0  0  0  0  0  0
  -20.1150   40.1980   92.5900 C   0  0  0  0  0  0  0  0  0  0  0  0
  -21.1750   39.8430   93.4300 C   0  0  0  0  0  0  0  0  0  0  0  0
  -20.9120   39.1890   94.6140 C   0  0  0  0  0  0  0  0  0  0  0  0
  -19.6080   38.8700   94.9330 C   0  0  0  0  0  0  0  0  0  0  0  0
  -19.4580   38.2000   96.0740 F   0  0  0  0  0  0  0  0  0  0  0  0
  -18.5160   39.1880   94.1170 C   0  0  0  0  0  0  0  0  0  0  0  0
  -18.7960   39.8760   92.9320 C   0  0  0  0  0  0  0  0  0  0  0  0
  -17.1000   38.7150   94.4880 C   0  0  2  0  0  0  0  0  0  0  0  0
  -17.0700   37.1890   94.3100 C   0  0  1  0  0  0  0  0  0  0  0  0
  -16.7920   39.0080   95.9850 C   0  0  1  0  0  0  0  0  0  0  0  0
  -15.4780   39.7410   96.1900 C   0  0  2  0  0  0  0  0  0  0  0  0
  -15.7300   41.0940   95.5840 C   0  0  0  0  0  0  0  0  0  0  0  0
  -16.1180   42.0120   96.2580 O   0  0  0  0  0  0  0  0  0  0  0  0
  -15.4090   41.3100   94.2630 N   0  0  0  0  0  0  0  0  0  0  0  0
  -15.1010   42.6870   93.8190 C   0  0  1  0  0  0  0  0  0  0  0  0
  -15.3790   40.2660   93.4250 C   0  0  0  0  0  0  0  0  0  0  0  0
  -14.5770   40.3110   92.4070 N   0  0  0  0  0  0  0  0  0  0  0  0
  -16.0850   39.1700   93.5250 N   0  0  0  0  0  0  0  0  0  0  0  0
  -19.3880   44.2690   86.5950 H   0  0  0  0  0  0  0  0  0  0  0  0
  -18.7220   42.6010   86.6290 H   0  0  0  0  0  0  0  0  0  0  0  0
  -20.2270   42.9570   85.7140 H   0  0  0  0  0  0  0  0  0  0  0  0
  -23.0700   43.4460   89.4260 H   0  0  0  0  0  0  0  0  0  0  0  0
  -19.5050   40.9430   90.7120 H   0  0  0  0  0  0  0  0  0  0  0  0
  -22.1800   40.0500   93.1840 H   0  0  0  0  0  0  0  0  0  0  0  0
  -21.7020   38.9180   95.2670 H   0  0  0  0  0  0  0  0  0  0  0  0
  -18.0230   40.1490   92.2650 H   0  0  0  0  0  0  0  0  0  0  0  0
  -16.0640   36.8230   94.5210 H   0  0  0  0  0  0  0  0  0  0  0  0
  -17.7750   36.7140   94.9920 H   0  0  0  0  0  0  0  0  0  0  0  0
  -17.3540   36.9420   93.2860 H   0  0  0  0  0  0  0  0  0  0  0  0
  -17.5690   39.6350   96.4260 H   0  0  0  0  0  0  0  0  0  0  0  0
  -16.7620   38.0840   96.5670 H   0  0  0  0  0  0  0  0  0  0  0  0
  -14.6490   39.2210   95.7290 H   0  0  0  0  0  0  0  0  0  0  0  0
  -15.3260   39.8770   97.2520 H   0  0  0  0  0  0  0  0  0  0  0  0
  -14.0800   42.9080   94.1050 H   0  0  0  0  0  0  0  0  0  0  0  0
  -15.2420   42.7650   92.7480 H   0  0  0  0  0  0  0  0  0  0  0  0
  -15.7850   43.3710   94.3080 H   0  0  0  0  0  0  0  0  0  0  0  0
  -13.9720   41.1330   92.3020 H   0  0  0  0  0  0  0  0  0  0  0  0
  -14.5040   39.5390   91.7370 H   0  0  0  0  0  0  0  0  0  0  0  0
  -15.9600   38.5040   92.7590 H   0  0  0  0  0  0  0  0  0  0  0  0
  1  2  1  0
  1 28  1  6
  1 29  1  0
  1 30  1  0
  2  3  2  0
  2  6  1  0
  3  4  1  0
  4  5  2  0
  4  7  1  0
  5  6  1  0
  5 31  1  0
  7  8  2  0
  7  9  1  0
  9 10  1  0
  9 32  1  0
 10 11  1  0
 10 16  2  0
 11 12  2  0
 11 33  1  0
 12 13  1  0
 12 34  1  0
 13 14  1  0
 13 15  2  0
 15 16  1  0
 17 15  1  6
 16 35  1  0
 17 18  1  0
 17 19  1  0
 17 27  1  0
 18 36  1  1
 18 37  1  0
 18 38  1  0
 19 20  1  0
 19 39  1  1
 19 40  1  0
 20 21  1  0
 20 41  1  6
 20 42  1  0
 21 22  2  0
 21 23  1  0
 23 24  1  0
 23 25  1  0
 24 43  1  6
 24 44  1  0
 24 45  1  0
 25 26  1  0
 25 27  2  0
 26 46  1  0
 26 47  1  0
 27 48  1  0
M  CHG  1  27   1
M  END
