27g
     RDKit          3D

 56 58  0  0  1  0  0  0  0  0999 V2000
  -20.8010   45.9590   81.6760 C   0  0  1  0  0  0  0  0  0  0  0  0
  -21.2130   45.6710   83.0600 C   0  0  0  0  0  0  0  0  0  0  0  0
  -21.5430   45.4350   84.1760 C   0  0  0  0  0  0  0  0  0  0  0  0
  -21.9420   45.1300   85.5530 C   0  0  1  0  0  0  0  0  0  0  0  0
  -20.9070   44.2450   86.0340 O   0  0  0  0  0  0  0  0  0  0  0  0
  -21.0270   43.5950   87.2180 C   0  0  0  0  0  0  0  0  0  0  0  0
  -20.0290   42.6970   87.6130 C   0  0  0  0  0  0  0  0  0  0  0  0
  -20.1140   42.0180   88.7530 N   0  0  0  0  0  0  0  0  0  0  0  0
  -21.2120   42.2470   89.5140 C   0  0  0  0  0  0  0  0  0  0  0  0
  -22.1930   43.1590   89.0960 C   0  0  0  0  0  0  0  0  0  0  0  0
  -22.1060   43.8340   87.9560 N   0  0  0  0  0  0  0  0  0  0  0  0
  -21.3770   41.5400   90.7800 C   0  0  0  0  0  0  0  0  0  0  0  0
  -22.4350   41.5340   91.3920 O   0  0  0  0  0  0  0  0  0  0  0  0
  -20.2750   40.8720   91.2880 N   0  0  0  0  0  0  0  0  0  0  0  0
  -20.1160   40.1840   92.5190 C   0  0  0  0  0  0  0  0  0  0  0  0
  -21.1970   39.8350   93.3350 C   0  0  0  0  0  0  0  0  0  0  0  0
  -20.9650   39.1690   94.5170 C   0  0  0  0  0  0  0  0  0  0  0  0
  -19.6700   38.8390   94.8590 C   0  0  0  0  0  0  0  0  0  0  0  0
  -19.5500   38.1650   96.0000 F   0  0  0  0  0  0  0  0  0  0  0  0
  -18.5570   39.1590   94.0750 C   0  0  0  0  0  0  0  0  0  0  0  0
  -18.8070   39.8490   92.8860 C   0  0  0  0  0  0  0  0  0  0  0  0
  -17.1430   38.7370   94.5150 C   0  0  2  0  0  0  0  0  0  0  0  0
  -17.0460   37.2070   94.4230 C   0  0  1  0  0  0  0  0  0  0  0  0
  -16.9280   39.1320   96.0020 C   0  0  1  0  0  0  0  0  0  0  0  0
  -15.5840   39.7910   96.2540 C   0  0  2  0  0  0  0  0  0  0  0  0
  -15.7370   41.1500   95.6310 C   0  0  0  0  0  0  0  0  0  0  0  0
  -16.0450   42.1000   96.3050 O   0  0  0  0  0  0  0  0  0  0  0  0
  -15.4090   41.3270   94.3040 N   0  0  0  0  0  0  0  0  0  0  0  0
  -15.1000   42.6940   93.8260 C   0  0  1  0  0  0  0  0  0  0  0  0
  -15.3760   40.2670   93.4820 C   0  0  0  0  0  0  0  0  0  0  0  0
  -14.5510   40.2890   92.4800 N   0  0  0  0  0  0  0  0  0  0  0  0
  -16.1080   39.1850   93.5680 N   0  0  0  0  0  0  0  0  0  0  0  0
  -21.3930   45.3270   81.0290 H   0  0  0  0  0  0  0  0  0  0  0  0
  -20.9950   47.0070   81.4980 H   0  0  0  0  0  0  0  0  0  0  0  0
  -19.7470   45.7300   81.6030 H   0  0  0  0  0  0  0  0  0  0  0  0
  -21.9470   46.0400   86.1390 H   0  0  0  0  0  0  0  0  0  0  0  0
  -22.8930   44.6140   85.5360 H   0  0  0  0  0  0  0  0  0  0  0  0
  -19.1880   42.5450   86.9870 H   0  0  0  0  0  0  0  0  0  0  0  0
  -23.0460   43.3270   89.7040 H   0  0  0  0  0  0  0  0  0  0  0  0
  -19.4550   40.9280   90.6640 H   0  0  0  0  0  0  0  0  0  0  0  0
  -22.1950   40.0540   93.0710 H   0  0  0  0  0  0  0  0  0  0  0  0
  -21.7710   38.8980   95.1510 H   0  0  0  0  0  0  0  0  0  0  0  0
  -18.0160   40.1250   92.2410 H   0  0  0  0  0  0  0  0  0  0  0  0
  -17.2730   36.8950   93.4020 H   0  0  0  0  0  0  0  0  0  0  0  0
  -16.0370   36.8960   94.6970 H   0  0  0  0  0  0  0  0  0  0  0  0
  -17.7600   36.7360   95.0970 H   0  0  0  0  0  0  0  0  0  0  0  0
  -17.7030   39.8260   96.3360 H   0  0  0  0  0  0  0  0  0  0  0  0
  -16.9980   38.2540   96.6470 H   0  0  0  0  0  0  0  0  0  0  0  0
  -14.7670   39.2230   95.8320 H   0  0  0  0  0  0  0  0  0  0  0  0
  -15.4700   39.9300   97.3210 H   0  0  0  0  0  0  0  0  0  0  0  0
  -15.2290   42.7430   92.7520 H   0  0  0  0  0  0  0  0  0  0  0  0
  -15.7930   43.3870   94.2890 H   0  0  0  0  0  0  0  0  0  0  0  0
  -14.0840   42.9270   94.1180 H   0  0  0  0  0  0  0  0  0  0  0  0
  -14.4480   39.4920   91.8430 H   0  0  0  0  0  0  0  0  0  0  0  0
  -13.9100   41.0860   92.3990 H   0  0  0  0  0  0  0  0  0  0  0  0
  -15.9680   38.5100   92.8130 H   0  0  0  0  0  0  0  0  0  0  0  0
  1  2  1  0
  1 33  1  6
  1 34  1  0
  1 35  1  0
  2  3  3  0
  3  4  1  0
  4  5  1  0
  4 36  1  1
  4 37  1  0
  5  6  1  0
  6  7  1  0
  6 11  2  0
  7  8  2  0
  7 38  1  0
  8  9  1  0
  9 10  2  0
  9 12  1  0
 10 11  1  0
 10 39  1  0
 12 13  2  0
 12 14  1  0
 14 15  1  0
 14 40  1  0
 15 16  1  0
 15 21  2  0
 16 17  2  0
 16 41  1  0
 17 18  1  0
 17 42  1  0
 18 19  1  0
 18 20  2  0
 20 21  1  0
 22 20  1  6
 21 43  1  0
 22 23  1  0
 22 24  1  0
 22 32  1  0
 23 44  1  6
 23 45  1  0
 23 46  1  0
 24 25  1  0
 24 47  1  1
 24 48  1  0
 25 26  1  0
 25 49  1  6
 25 50  1  0
 26 27  2  0
 26 28  1  0
 28 29  1  0
 28 30  1  0
 29 51  1  6
 29 52  1  0
 29 53  1  0
 30 31  1  0
 30 32  2  0
 31 54  1  0
 31 55  1  0
 32 56  1  0
M  CHG  1  32   1
M  END
