17b
     RDKit          3D

 45 47  0  0  1  0  0  0  0  0999 V2000
  -14.9140   42.5650   94.0180 C   0  0  1  0  0  0  0  0  0  0  0  0
  -15.4590   41.2100   94.2600 N   0  0  0  0  0  0  0  0  0  0  0  0
  -15.3330   40.2240   93.3680 C   0  0  0  0  0  0  0  0  0  0  0  0
  -14.5250   40.3160   92.3610 N   0  0  0  0  0  0  0  0  0  0  0  0
  -16.0200   39.1250   93.4550 N   0  0  0  0  0  0  0  0  0  0  0  0
  -16.9470   38.8320   94.5210 C   0  0  1  0  0  0  0  0  0  0  0  0
  -16.8770   37.3060   94.6820 C   0  0  1  0  0  0  0  0  0  0  0  0
  -16.4210   39.4900   95.7970 C   0  0  1  0  0  0  0  0  0  0  0  0
  -16.1330   40.9190   95.4380 C   0  0  0  0  0  0  0  0  0  0  0  0
  -16.3940   41.8160   96.1960 O   0  0  0  0  0  0  0  0  0  0  0  0
  -18.3870   39.2480   94.1610 C   0  0  0  0  0  0  0  0  0  0  0  0
  -18.7030   39.8870   92.9570 C   0  0  0  0  0  0  0  0  0  0  0  0
  -20.0310   40.1730   92.6220 C   0  0  0  0  0  0  0  0  0  0  0  0
  -21.0720   39.8120   93.4810 C   0  0  0  0  0  0  0  0  0  0  0  0
  -20.7760   39.2070   94.6860 C   0  0  0  0  0  0  0  0  0  0  0  0
  -19.4570   38.9470   95.0070 C   0  0  0  0  0  0  0  0  0  0  0  0
  -19.2570   38.3720   96.1880 F   0  0  0  0  0  0  0  0  0  0  0  0
  -20.2420   40.8250   91.3780 N   0  0  0  0  0  0  0  0  0  0  0  0
  -21.3540   41.4890   90.8930 C   0  0  0  0  0  0  0  0  0  0  0  0
  -22.3990   41.4850   91.5280 O   0  0  0  0  0  0  0  0  0  0  0  0
  -21.2000   42.1910   89.6200 C   0  0  0  0  0  0  0  0  0  0  0  0
  -22.1940   43.0720   89.1760 C   0  0  0  0  0  0  0  0  0  0  0  0
  -22.0440   43.7500   87.9840 C   0  0  0  0  0  0  0  0  0  0  0  0
  -20.8910   43.5260   87.2480 C   0  0  0  0  0  0  0  0  0  0  0  0
  -20.6420   44.3390   85.7420 Cl  0  0  0  0  0  0  0  0  0  0  0  0
  -19.9300   42.6370   87.7270 C   0  0  0  0  0  0  0  0  0  0  0  0
  -20.0810   41.9920   88.8770 N   0  0  0  0  0  0  0  0  0  0  0  0
  -15.4660   43.2880   94.6060 H   0  0  0  0  0  0  0  0  0  0  0  0
  -13.8720   42.5610   94.3160 H   0  0  0  0  0  0  0  0  0  0  0  0
  -15.0300   42.8110   92.9700 H   0  0  0  0  0  0  0  0  0  0  0  0
  -14.4160   39.5470   91.6910 H   0  0  0  0  0  0  0  0  0  0  0  0
  -13.9450   41.1570   92.2690 H   0  0  0  0  0  0  0  0  0  0  0  0
  -15.8330   36.9970   94.7560 H   0  0  0  0  0  0  0  0  0  0  0  0
  -17.3940   36.9920   95.5860 H   0  0  0  0  0  0  0  0  0  0  0  0
  -17.3420   36.8380   93.8130 H   0  0  0  0  0  0  0  0  0  0  0  0
  -17.1420   39.4650   96.5990 H   0  0  0  0  0  0  0  0  0  0  0  0
  -15.4830   39.0300   96.0740 H   0  0  0  0  0  0  0  0  0  0  0  0
  -17.9480   40.1580   92.2670 H   0  0  0  0  0  0  0  0  0  0  0  0
  -22.0840   39.9890   93.2300 H   0  0  0  0  0  0  0  0  0  0  0  0
  -21.5510   38.9400   95.3590 H   0  0  0  0  0  0  0  0  0  0  0  0
  -19.4400   40.8840   90.7300 H   0  0  0  0  0  0  0  0  0  0  0  0
  -23.0660   43.2190   89.7620 H   0  0  0  0  0  0  0  0  0  0  0  0
  -22.7850   44.4220   87.6340 H   0  0  0  0  0  0  0  0  0  0  0  0
  -19.0500   42.4640   87.1600 H   0  0  0  0  0  0  0  0  0  0  0  0
  -15.9370   38.4350   92.7010 H   0  0  0  0  0  0  0  0  0  0  0  0
  1  2  1  0
  1 28  1  1
  1 29  1  0
  1 30  1  0
  2  3  1  0
  2  9  1  0
  3  4  1  0
  3  5  2  0
  4 31  1  0
  4 32  1  0
  5  6  1  0
  5 45  1  0
  6  7  1  0
  6  8  1  0
  6 11  1  6
  7 33  1  1
  7 34  1  0
  7 35  1  0
  8  9  1  0
  8 36  1  1
  8 37  1  0
  9 10  2  0
 11 12  2  0
 11 16  1  0
 12 13  1  0
 12 38  1  0
 13 14  2  0
 13 18  1  0
 14 15  1  0
 14 39  1  0
 15 16  2  0
 15 40  1  0
 16 17  1  0
 18 19  1  0
 18 41  1  0
 19 20  2  0
 19 21  1  0
 21 22  1  0
 21 27  2  0
 22 23  2  0
 22 42  1  0
 23 24  1  0
 23 43  1  0
 24 25  1  0
 24 26  2  0
 26 27  1  0
 26 44  1  0
M  CHG  1   5   1
M  END
