8d
     RDKit          3D

 45 47  0  0  1  0  0  0  0  0999 V2000
  -22.1670   45.0380   85.7250 C   0  0  1  0  0  0  0  0  0  0  0  0
  -21.0890   44.2380   86.2460 O   0  0  0  0  0  0  0  0  0  0  0  0
  -21.1230   43.5260   87.3970 C   0  0  0  0  0  0  0  0  0  0  0  0
  -20.0710   42.6860   87.7900 C   0  0  0  0  0  0  0  0  0  0  0  0
  -20.1200   42.0000   88.9220 N   0  0  0  0  0  0  0  0  0  0  0  0
  -21.2370   42.1560   89.6760 C   0  0  0  0  0  0  0  0  0  0  0  0
  -22.2760   42.9970   89.2530 C   0  0  0  0  0  0  0  0  0  0  0  0
  -22.2230   43.6820   88.1220 N   0  0  0  0  0  0  0  0  0  0  0  0
  -21.3540   41.4540   90.9470 C   0  0  0  0  0  0  0  0  0  0  0  0
  -22.3850   41.4500   91.6010 O   0  0  0  0  0  0  0  0  0  0  0  0
  -20.2260   40.8040   91.4030 N   0  0  0  0  0  0  0  0  0  0  0  0
  -19.9910   40.1680   92.6460 C   0  0  0  0  0  0  0  0  0  0  0  0
  -21.0140   39.6480   93.4390 C   0  0  0  0  0  0  0  0  0  0  0  0
  -20.6930   39.0560   94.6470 C   0  0  0  0  0  0  0  0  0  0  0  0
  -19.3660   38.9840   95.0400 C   0  0  0  0  0  0  0  0  0  0  0  0
  -19.1610   38.4140   96.2170 F   0  0  0  0  0  0  0  0  0  0  0  0
  -18.3110   39.4820   94.2690 C   0  0  0  0  0  0  0  0  0  0  0  0
  -18.6590   40.0800   93.0530 C   0  0  0  0  0  0  0  0  0  0  0  0
  -16.8240   39.4580   94.6990 C   0  0  1  0  0  0  0  0  0  0  0  0
  -16.4240   38.3980   95.7350 C   0  0  1  0  0  0  0  0  0  0  0  0
  -16.0040   39.2180   93.5230 N   0  0  0  0  0  0  0  0  0  0  0  0
  -15.2550   40.2500   93.2870 C   0  0  0  0  0  0  0  0  0  0  0  0
  -14.4480   40.2780   92.2820 N   0  0  0  0  0  0  0  0  0  0  0  0
  -15.4210   41.2520   94.1390 N   0  0  0  0  0  0  0  0  0  0  0  0
  -14.7560   42.5600   94.0860 C   0  0  1  0  0  0  0  0  0  0  0  0
  -16.3170   40.8560   95.1030 C   0  0  0  0  0  0  0  0  0  0  0  0
  -16.5950   41.5960   96.0190 O   0  0  0  0  0  0  0  0  0  0  0  0
  -23.0200   44.3880   85.5300 H   0  0  0  0  0  0  0  0  0  0  0  0
  -22.4100   45.8120   86.4540 H   0  0  0  0  0  0  0  0  0  0  0  0
  -21.8200   45.4920   84.7970 H   0  0  0  0  0  0  0  0  0  0  0  0
  -19.2120   42.5840   87.1790 H   0  0  0  0  0  0  0  0  0  0  0  0
  -23.1450   43.1030   89.8530 H   0  0  0  0  0  0  0  0  0  0  0  0
  -19.4320   40.8810   90.7470 H   0  0  0  0  0  0  0  0  0  0  0  0
  -22.0250   39.6940   93.1280 H   0  0  0  0  0  0  0  0  0  0  0  0
  -21.4550   38.6600   95.2690 H   0  0  0  0  0  0  0  0  0  0  0  0
  -17.9190   40.4970   92.4220 H   0  0  0  0  0  0  0  0  0  0  0  0
  -16.8250   37.4320   95.4260 H   0  0  0  0  0  0  0  0  0  0  0  0
  -15.3360   38.3470   95.7950 H   0  0  0  0  0  0  0  0  0  0  0  0
  -16.8130   38.6870   96.7120 H   0  0  0  0  0  0  0  0  0  0  0  0
  -14.3430   39.4580   91.6720 H   0  0  0  0  0  0  0  0  0  0  0  0
  -13.8610   41.1080   92.1370 H   0  0  0  0  0  0  0  0  0  0  0  0
  -13.6940   42.4020   94.2290 H   0  0  0  0  0  0  0  0  0  0  0  0
  -14.9670   43.0060   93.1220 H   0  0  0  0  0  0  0  0  0  0  0  0
  -15.1480   43.1870   94.8780 H   0  0  0  0  0  0  0  0  0  0  0  0
  -15.9920   38.3620   92.9550 H   0  0  0  0  0  0  0  0  0  0  0  0
  1  2  1  0
  1 28  1  6
  1 29  1  0
  1 30  1  0
  2  3  1  0
  3  4  1  0
  3  8  2  0
  4  5  2  0
  4 31  1  0
  5  6  1  0
  6  7  2  0
  6  9  1  0
  7  8  1  0
  7 32  1  0
  9 10  2  0
  9 11  1  0
 11 12  1  0
 11 33  1  0
 12 13  1  0
 12 18  2  0
 13 14  2  0
 13 34  1  0
 14 15  1  0
 14 35  1  0
 15 16  1  0
 15 17  2  0
 17 18  1  0
 19 17  1  6
 18 36  1  0
 19 20  1  0
 19 21  1  0
 19 26  1  0
 20 37  1  6
 20 38  1  0
 20 39  1  0
 21 22  2  0
 21 45  1  0
 22 23  1  0
 22 24  1  0
 23 40  1  0
 23 41  1  0
 24 25  1  0
 24 26  1  0
 25 42  1  1
 25 43  1  0
 25 44  1  0
 26 27  2  0
M  CHG  1  21   1
M  END
