8a
     RDKit          3D

 42 44  0  0  1  0  0  0  0  0999 V2000
  -19.6970   43.2240   86.6320 C   0  0  1  0  0  0  0  0  0  0  0  0
  -20.4990   42.9140   87.8630 C   0  0  0  0  0  0  0  0  0  0  0  0
  -20.2150   42.0890   88.8060 N   0  0  0  0  0  0  0  0  0  0  0  0
  -21.2780   42.1970   89.6640 C   0  0  0  0  0  0  0  0  0  0  0  0
  -22.1510   43.0960   89.1640 C   0  0  0  0  0  0  0  0  0  0  0  0
  -21.6670   43.5530   88.0420 O   0  0  0  0  0  0  0  0  0  0  0  0
  -21.4150   41.4680   90.9100 C   0  0  0  0  0  0  0  0  0  0  0  0
  -22.4560   41.4350   91.5460 O   0  0  0  0  0  0  0  0  0  0  0  0
  -20.2770   40.8330   91.3610 N   0  0  0  0  0  0  0  0  0  0  0  0
  -20.0270   40.1870   92.5960 C   0  0  0  0  0  0  0  0  0  0  0  0
  -21.0470   39.6770   93.3990 C   0  0  0  0  0  0  0  0  0  0  0  0
  -20.7200   39.1030   94.6120 C   0  0  0  0  0  0  0  0  0  0  0  0
  -19.3900   39.0370   94.9970 C   0  0  0  0  0  0  0  0  0  0  0  0
  -19.1810   38.5020   96.1880 F   0  0  0  0  0  0  0  0  0  0  0  0
  -18.3340   39.5100   94.2130 C   0  0  0  0  0  0  0  0  0  0  0  0
  -18.6880   40.0900   92.9890 C   0  0  0  0  0  0  0  0  0  0  0  0
  -16.8450   39.4680   94.6510 C   0  0  1  0  0  0  0  0  0  0  0  0
  -16.4650   38.3570   95.6390 C   0  0  2  0  0  0  0  0  0  0  0  0
  -16.0260   39.2410   93.4700 N   0  0  0  0  0  0  0  0  0  0  0  0
  -15.2510   40.2600   93.2650 C   0  0  0  0  0  0  0  0  0  0  0  0
  -14.4230   40.2840   92.2760 N   0  0  0  0  0  0  0  0  0  0  0  0
  -15.4040   41.2490   94.1360 N   0  0  0  0  0  0  0  0  0  0  0  0
  -14.7100   42.5420   94.1170 C   0  0  1  0  0  0  0  0  0  0  0  0
  -16.3010   40.8510   95.0990 C   0  0  0  0  0  0  0  0  0  0  0  0
  -16.5380   41.5930   96.0310 O   0  0  0  0  0  0  0  0  0  0  0  0
  -19.4160   44.2750   86.6740 H   0  0  0  0  0  0  0  0  0  0  0  0
  -18.8170   42.5820   86.6190 H   0  0  0  0  0  0  0  0  0  0  0  0
  -20.3310   43.0350   85.7660 H   0  0  0  0  0  0  0  0  0  0  0  0
  -23.0820   43.4380   89.5430 H   0  0  0  0  0  0  0  0  0  0  0  0
  -19.4880   40.9420   90.7050 H   0  0  0  0  0  0  0  0  0  0  0  0
  -22.0600   39.7190   93.0960 H   0  0  0  0  0  0  0  0  0  0  0  0
  -21.4770   38.7190   95.2460 H   0  0  0  0  0  0  0  0  0  0  0  0
  -17.9500   40.4910   92.3460 H   0  0  0  0  0  0  0  0  0  0  0  0
  -16.9040   37.4170   95.3010 H   0  0  0  0  0  0  0  0  0  0  0  0
  -16.8260   38.6210   96.6330 H   0  0  0  0  0  0  0  0  0  0  0  0
  -15.3790   38.2660   95.6800 H   0  0  0  0  0  0  0  0  0  0  0  0
  -14.3580   39.4900   91.6270 H   0  0  0  0  0  0  0  0  0  0  0  0
  -13.8350   41.1140   92.1370 H   0  0  0  0  0  0  0  0  0  0  0  0
  -13.6910   42.3780   94.4460 H   0  0  0  0  0  0  0  0  0  0  0  0
  -14.7430   42.9350   93.1090 H   0  0  0  0  0  0  0  0  0  0  0  0
  -15.2170   43.2220   94.7910 H   0  0  0  0  0  0  0  0  0  0  0  0
  -16.0410   38.4070   92.8720 H   0  0  0  0  0  0  0  0  0  0  0  0
  1  2  1  0
  1 26  1  1
  1 27  1  0
  1 28  1  0
  2  3  2  0
  2  6  1  0
  3  4  1  0
  4  5  2  0
  4  7  1  0
  5  6  1  0
  5 29  1  0
  7  8  2  0
  7  9  1  0
  9 10  1  0
  9 30  1  0
 10 11  1  0
 10 16  2  0
 11 12  2  0
 11 31  1  0
 12 13  1  0
 12 32  1  0
 13 14  1  0
 13 15  2  0
 15 16  1  0
 17 15  1  6
 16 33  1  0
 17 18  1  0
 17 19  1  0
 17 24  1  0
 18 34  1  6
 18 35  1  0
 18 36  1  0
 19 20  2  0
 19 42  1  0
 20 21  1  0
 20 22  1  0
 21 37  1  0
 21 38  1  0
 22 23  1  0
 22 24  1  0
 23 39  1  1
 23 40  1  0
 23 41  1  0
 24 25  2  0
M  CHG  1  19   1
M  END
