27c
     RDKit          3D

 49 51  0  0  1  0  0  0  0  0999 V2000
  -15.0600   42.5500   93.9500 C   0  0  1  0  0  0  0  0  0  0  0  0
  -15.5440   41.1800   94.3160 N   0  0  0  0  0  0  0  0  0  0  0  0
  -15.3910   40.1740   93.4320 C   0  0  0  0  0  0  0  0  0  0  0  0
  -14.5370   40.2980   92.4610 N   0  0  0  0  0  0  0  0  0  0  0  0
  -16.0240   39.0420   93.3810 N   0  0  0  0  0  0  0  0  0  0  0  0
  -17.0000   38.4730   94.2570 C   0  0  1  0  0  0  0  0  0  0  0  0
  -17.1250   37.0120   93.8070 C   0  0  1  0  0  0  0  0  0  0  0  0
  -16.3580   38.4430   95.6440 C   0  0  2  0  0  0  0  0  0  0  0  0
  -16.5110   39.7850   96.3450 C   0  0  1  0  0  0  0  0  0  0  0  0
  -16.1400   41.0360   95.5820 C   0  0  0  0  0  0  0  0  0  0  0  0
  -16.3380   42.0480   96.1990 O   0  0  0  0  0  0  0  0  0  0  0  0
  -18.3950   39.1000   94.0790 C   0  0  0  0  0  0  0  0  0  0  0  0
  -18.7200   39.7990   92.9120 C   0  0  0  0  0  0  0  0  0  0  0  0
  -20.0330   40.2010   92.6560 C   0  0  0  0  0  0  0  0  0  0  0  0
  -21.0480   39.9300   93.5790 C   0  0  0  0  0  0  0  0  0  0  0  0
  -20.7390   39.2630   94.7500 C   0  0  0  0  0  0  0  0  0  0  0  0
  -19.4360   38.8590   94.9770 C   0  0  0  0  0  0  0  0  0  0  0  0
  -19.2300   38.1770   96.0980 F   0  0  0  0  0  0  0  0  0  0  0  0
  -20.2500   40.8530   91.4120 N   0  0  0  0  0  0  0  0  0  0  0  0
  -21.3640   41.5060   90.9220 C   0  0  0  0  0  0  0  0  0  0  0  0
  -22.4100   41.5000   91.5520 O   0  0  0  0  0  0  0  0  0  0  0  0
  -21.2130   42.1980   89.6420 C   0  0  0  0  0  0  0  0  0  0  0  0
  -22.2110   43.0670   89.1900 C   0  0  0  0  0  0  0  0  0  0  0  0
  -22.0600   43.7380   87.9930 C   0  0  0  0  0  0  0  0  0  0  0  0
  -20.9030   43.5240   87.2580 C   0  0  0  0  0  0  0  0  0  0  0  0
  -20.6890   44.1970   86.0110 C   0  0  0  0  0  0  0  0  0  0  0  0
  -20.5170   44.7330   85.0190 N   0  0  0  0  0  0  0  0  0  0  0  0
  -19.9440   42.6420   87.7500 C   0  0  0  0  0  0  0  0  0  0  0  0
  -20.0950   42.0030   88.9040 N   0  0  0  0  0  0  0  0  0  0  0  0
  -14.0750   42.6780   94.3820 H   0  0  0  0  0  0  0  0  0  0  0  0
  -15.0460   42.6720   92.8750 H   0  0  0  0  0  0  0  0  0  0  0  0
  -15.7420   43.2930   94.3470 H   0  0  0  0  0  0  0  0  0  0  0  0
  -14.3810   39.5550   91.7730 H   0  0  0  0  0  0  0  0  0  0  0  0
  -13.9480   41.1370   92.4350 H   0  0  0  0  0  0  0  0  0  0  0  0
  -16.1510   36.5220   93.8600 H   0  0  0  0  0  0  0  0  0  0  0  0
  -17.8270   36.4970   94.4650 H   0  0  0  0  0  0  0  0  0  0  0  0
  -17.5090   36.9830   92.7860 H   0  0  0  0  0  0  0  0  0  0  0  0
  -15.2990   38.1850   95.5670 H   0  0  0  0  0  0  0  0  0  0  0  0
  -16.8230   37.6790   96.2690 H   0  0  0  0  0  0  0  0  0  0  0  0
  -17.5370   39.9130   96.6560 H   0  0  0  0  0  0  0  0  0  0  0  0
  -15.8730   39.7590   97.2170 H   0  0  0  0  0  0  0  0  0  0  0  0
  -17.9860   40.0010   92.1780 H   0  0  0  0  0  0  0  0  0  0  0  0
  -22.0490   40.2150   93.4030 H   0  0  0  0  0  0  0  0  0  0  0  0
  -21.4940   39.0500   95.4630 H   0  0  0  0  0  0  0  0  0  0  0  0
  -19.4520   40.9030   90.7590 H   0  0  0  0  0  0  0  0  0  0  0  0
  -23.0870   43.2120   89.7710 H   0  0  0  0  0  0  0  0  0  0  0  0
  -22.8130   44.4010   87.6480 H   0  0  0  0  0  0  0  0  0  0  0  0
  -19.0550   42.4620   87.1980 H   0  0  0  0  0  0  0  0  0  0  0  0
  -15.8010   38.4400   92.5870 H   0  0  0  0  0  0  0  0  0  0  0  0
  1  2  1  0
  1 30  1  1
  1 31  1  0
  1 32  1  0
  2  3  1  0
  2 10  1  0
  3  4  1  0
  3  5  2  0
  4 33  1  0
  4 34  1  0
  5  6  1  0
  5 49  1  0
  6  7  1  0
  6  8  1  0
  6 12  1  1
  7 35  1  6
  7 36  1  0
  7 37  1  0
  8  9  1  0
  8 38  1  6
  8 39  1  0
  9 10  1  0
  9 40  1  1
  9 41  1  0
 10 11  2  0
 12 13  2  0
 12 17  1  0
 13 14  1  0
 13 42  1  0
 14 15  2  0
 14 19  1  0
 15 16  1  0
 15 43  1  0
 16 17  2  0
 16 44  1  0
 17 18  1  0
 19 20  1  0
 19 45  1  0
 20 21  2  0
 20 22  1  0
 22 23  1  0
 22 29  2  0
 23 24  2  0
 23 46  1  0
 24 25  1  0
 24 47  1  0
 25 26  1  0
 25 28  2  0
 26 27  3  0
 28 29  1  0
 28 48  1  0
M  CHG  1   5   1
M  END
