CHEMBL3402762_1 redocked
     RDKit          3D

 66 70  0  0  1  0  0  0  0  0999 V2000
   24.2487   30.2346   45.4163 C   0  0  1  0  0  0  0  0  0  0  0  0
   24.6103   31.5180   46.0111 N   0  0  2  0  0  0  0  0  0  0  0  0
   25.8586   31.3117   46.9074 C   0  0  1  0  0  0  0  0  0  0  0  0
   25.8752   32.3605   48.0343 C   0  0  2  0  0  0  0  0  0  0  0  0
   24.6202   32.2795   48.9350 C   0  0  1  0  0  0  0  0  0  0  0  0
   24.3598   33.6330   49.5268 C   0  0  2  0  0  0  0  0  0  0  0  0
   25.1980   33.8713   50.6511 O   0  0  0  0  0  0  0  0  0  0  0  0
   24.7489   33.5622   51.9177 C   0  0  0  0  0  0  0  0  0  0  0  0
   25.4123   34.1189   53.0067 C   0  0  0  0  0  0  0  0  0  0  0  0
   25.0135   33.9569   54.2915 N   0  0  0  0  0  0  0  0  0  0  0  0
   23.9458   33.1441   54.5018 C   0  0  0  0  0  0  0  0  0  0  0  0
   23.2730   32.4981   53.5125 N   0  0  0  0  0  0  0  0  0  0  0  0
   23.6683   32.7284   52.2322 C   0  0  0  0  0  0  0  0  0  0  0  0
   23.5269   32.8988   55.9215 C   0  0  0  0  0  0  0  0  0  0  0  0
   24.4722   32.9692   56.9562 C   0  0  0  0  0  0  0  0  0  0  0  0
   24.1266   32.6909   58.2757 C   0  0  0  0  0  0  0  0  0  0  0  0
   22.8221   32.3318   58.5902 C   0  0  0  0  0  0  0  0  0  0  0  0
   21.8528   32.2615   57.5925 C   0  0  0  0  0  0  0  0  0  0  0  0
   20.4196   31.8927   57.9679 C   0  0  2  0  0  0  0  0  0  0  0  0
   20.1157   30.4603   57.8131 N   0  0  0  0  0  0  0  0  0  0  0  0
   19.6721   30.0726   56.5505 N   0  0  0  0  0  0  0  0  0  0  0  0
   19.3295   28.8541   56.2722 C   0  0  0  0  0  0  0  0  0  0  0  0
   19.4532   27.8908   57.3492 C   0  0  0  0  0  0  0  0  0  0  0  0
   19.9540   28.2437   58.5580 C   0  0  0  0  0  0  0  0  0  0  0  0
   20.3403   29.6099   58.8789 C   0  0  0  0  0  0  0  0  0  0  0  0
   20.8013   29.9247   59.9786 O   0  0  0  0  0  0  0  0  0  0  0  0
   18.8756   28.4381   54.9264 C   0  0  0  0  0  0  0  0  0  0  0  0
   19.3572   29.0390   53.7501 C   0  0  0  0  0  0  0  0  0  0  0  0
   18.9033   28.6172   52.5012 C   0  0  0  0  0  0  0  0  0  0  0  0
   17.9504   27.6070   52.4065 C   0  0  0  0  0  0  0  0  0  0  0  0
   17.4381   27.0239   53.5607 C   0  0  0  0  0  0  0  0  0  0  0  0
   17.8980   27.4372   54.8083 C   0  0  0  0  0  0  0  0  0  0  0  0
   16.3985   25.9470   53.4629 C   0  0  0  0  0  0  0  0  0  0  0  0
   15.5961   25.1146   53.4191 N   0  0  0  0  0  0  0  0  0  0  0  0
   22.2040   32.5602   56.2669 C   0  0  0  0  0  0  0  0  0  0  0  0
   23.3597   31.7716   48.1962 C   0  0  1  0  0  0  0  0  0  0  0  0
   23.3674   32.1374   46.7007 C   0  0  2  0  0  0  0  0  0  0  0  0
   23.9636   29.5368   46.2036 H   0  0  0  0  0  0  0  0  0  0  0  0
   23.4107   30.3740   44.7333 H   0  0  0  0  0  0  0  0  0  0  0  0
   25.1018   29.8350   44.8680 H   0  0  0  0  0  0  0  0  0  0  0  0
   25.7901   30.2970   47.3063 H   0  0  0  0  0  0  0  0  0  0  0  0
   26.7352   31.3661   46.2578 H   0  0  0  0  0  0  0  0  0  0  0  0
   25.9446   33.3539   47.5867 H   0  0  0  0  0  0  0  0  0  0  0  0
   26.7800   32.2539   48.6361 H   0  0  0  0  0  0  0  0  0  0  0  0
   24.8142   31.6289   49.7909 H   0  0  0  0  0  0  0  0  0  0  0  0
   23.3048   33.7072   49.7946 H   0  0  0  0  0  0  0  0  0  0  0  0
   24.5619   34.3774   48.7564 H   0  0  0  0  0  0  0  0  0  0  0  0
   26.2618   34.7681   52.8531 H   0  0  0  0  0  0  0  0  0  0  0  0
   23.0968   32.2293   51.4641 H   0  0  0  0  0  0  0  0  0  0  0  0
   25.4946   33.2298   56.7231 H   0  0  0  0  0  0  0  0  0  0  0  0
   24.8748   32.7424   59.0535 H   0  0  0  0  0  0  0  0  0  0  0  0
   22.5632   32.1012   59.6149 H   0  0  0  0  0  0  0  0  0  0  0  0
   19.7376   32.4725   57.3444 H   0  0  0  0  0  0  0  0  0  0  0  0
   20.2142   32.2224   58.9885 H   0  0  0  0  0  0  0  0  0  0  0  0
   19.1905   26.8595   57.1756 H   0  0  0  0  0  0  0  0  0  0  0  0
   20.0609   27.4947   59.3277 H   0  0  0  0  0  0  0  0  0  0  0  0
   20.1065   29.8153   53.7952 H   0  0  0  0  0  0  0  0  0  0  0  0
   19.2934   29.0749   51.6032 H   0  0  0  0  0  0  0  0  0  0  0  0
   17.5999   27.2838   51.4365 H   0  0  0  0  0  0  0  0  0  0  0  0
   17.4881   26.9718   55.6945 H   0  0  0  0  0  0  0  0  0  0  0  0
   21.4594   32.4955   55.4865 H   0  0  0  0  0  0  0  0  0  0  0  0
   23.2891   30.6860   48.2905 H   0  0  0  0  0  0  0  0  0  0  0  0
   22.4585   32.1596   48.6752 H   0  0  0  0  0  0  0  0  0  0  0  0
   22.4869   31.7744   46.1657 H   0  0  0  0  0  0  0  0  0  0  0  0
   23.4368   33.2176   46.5536 H   0  0  0  0  0  0  0  0  0  0  0  0
   24.8568   32.0926   45.2163 H   0  0  0  0  0  0  0  0  0  0  0  0
  1  2  1  0
  1 38  1  1
  1 39  1  0
  1 40  1  0
  2  3  1  0
  2 37  1  0
  2 66  1  6
  3  4  1  0
  3 41  1  1
  3 42  1  0
  4  5  1  0
  4 43  1  6
  4 44  1  0
  5  6  1  0
  5 36  1  0
  5 45  1  1
  6  7  1  0
  6 46  1  1
  6 47  1  0
  7  8  1  0
  8  9  2  0
  8 13  1  0
  9 10  1  0
  9 48  1  0
 10 11  2  0
 11 12  1  0
 11 14  1  0
 12 13  2  0
 13 49  1  0
 14 15  2  0
 14 35  1  0
 15 16  1  0
 15 50  1  0
 16 17  2  0
 16 51  1  0
 17 18  1  0
 17 52  1  0
 18 19  1  0
 18 35  2  0
 19 20  1  0
 19 53  1  6
 19 54  1  0
 20 21  1  0
 20 25  1  0
 21 22  2  0
 22 23  1  0
 22 27  1  0
 23 24  2  0
 23 55  1  0
 24 25  1  0
 24 56  1  0
 25 26  2  0
 27 28  2  0
 27 32  1  0
 28 29  1  0
 28 57  1  0
 29 30  2  0
 29 58  1  0
 30 31  1  0
 30 59  1  0
 31 32  2  0
 31 33  1  0
 32 60  1  0
 33 34  3  0
 35 61  1  0
 36 37  1  0
 36 62  1  6
 36 63  1  0
 37 64  1  6
 37 65  1  0
M  CHG  1   2   1
M  END
