CHEMBL3402765_11-charged-pKa-8.1
     RDKit          3D

 62 65  0  0  1  0  0  0  0  0999 V2000
   17.7092   30.8188   51.7537 F   0  0  0  0  0  0  0  0  0  0  0  0
   17.9319   29.6954   52.4733 C   0  0  0  0  0  0  0  0  0  0  0  0
   17.6640   28.4469   51.9218 C   0  0  0  0  0  0  0  0  0  0  0  0
   17.8828   27.2949   52.6747 C   0  0  0  0  0  0  0  0  0  0  0  0
   17.6026   26.0840   52.1433 F   0  0  0  0  0  0  0  0  0  0  0  0
   18.3725   27.3898   53.9777 C   0  0  0  0  0  0  0  0  0  0  0  0
   18.6343   28.6431   54.5608 C   0  0  0  0  0  0  0  0  0  0  0  0
   18.4160   29.7922   53.7750 C   0  0  0  0  0  0  0  0  0  0  0  0
   19.0896   28.7993   55.9686 C   0  0  0  0  0  0  0  0  0  0  0  0
   19.3738   29.9553   56.4827 N   0  0  0  0  0  0  0  0  0  0  0  0
   19.7651   30.1164   57.8152 N   0  0  0  0  0  0  0  0  0  0  0  0
   20.0644   31.4998   58.2351 C   0  0  2  0  0  0  0  0  0  0  0  0
   21.4571   31.9745   57.8393 C   0  0  0  0  0  0  0  0  0  0  0  0
   22.5121   32.0109   58.7287 C   0  0  0  0  0  0  0  0  0  0  0  0
   23.7575   32.4522   58.3219 C   0  0  0  0  0  0  0  0  0  0  0  0
   23.9614   32.8598   57.0129 C   0  0  0  0  0  0  0  0  0  0  0  0
   22.8943   32.8488   56.1157 C   0  0  0  0  0  0  0  0  0  0  0  0
   22.9742   33.2091   54.7468 N   0  0  0  0  0  0  0  0  0  0  0  0
   24.0717   33.6620   54.0455 C   0  0  0  0  0  0  0  0  0  0  0  0
   25.1417   33.8384   54.5675 O   0  0  0  0  0  0  0  0  0  0  0  0
   23.9078   33.9027   52.7144 O   0  0  0  0  0  0  0  0  0  0  0  0
   25.0532   34.0430   51.8761 C   0  0  2  0  0  0  0  0  0  0  0  0
   25.0098   33.1293   50.6528 C   0  0  2  0  0  0  0  0  0  0  0  0
   23.8634   33.5438   49.7280 C   0  0  2  0  0  0  0  0  0  0  0  0
   23.0717   32.2996   49.2597 N   0  0  2  0  0  0  0  0  0  0  0  0
   23.8451   31.4886   48.1923 C   0  0  2  0  0  0  0  0  0  0  0  0
   22.9823   30.2883   47.7621 C   0  0  2  0  0  0  0  0  0  0  0  0
   21.7061   30.7185   47.2960 O   0  0  0  0  0  0  0  0  0  0  0  0
   20.9378   31.4368   48.2561 C   0  0  2  0  0  0  0  0  0  0  0  0
   21.6818   32.7062   48.7167 C   0  0  1  0  0  0  0  0  0  0  0  0
   21.6621   32.3949   56.5362 C   0  0  0  0  0  0  0  0  0  0  0  0
   19.9036   29.0957   58.7321 C   0  0  0  0  0  0  0  0  0  0  0  0
   20.2067   29.2158   59.9221 O   0  0  0  0  0  0  0  0  0  0  0  0
   19.6210   27.7985   58.1421 C   0  0  0  0  0  0  0  0  0  0  0  0
   19.2326   27.6527   56.8540 C   0  0  0  0  0  0  0  0  0  0  0  0
   17.2765   28.3709   50.9184 H   0  0  0  0  0  0  0  0  0  0  0  0
   18.5200   26.4597   54.5076 H   0  0  0  0  0  0  0  0  0  0  0  0
   18.6029   30.7789   54.1694 H   0  0  0  0  0  0  0  0  0  0  0  0
   19.9257   31.6405   59.3103 H   0  0  0  0  0  0  0  0  0  0  0  0
   19.3266   32.1687   57.7869 H   0  0  0  0  0  0  0  0  0  0  0  0
   22.3737   31.6910   59.7523 H   0  0  0  0  0  0  0  0  0  0  0  0
   24.5815   32.4750   59.0225 H   0  0  0  0  0  0  0  0  0  0  0  0
   24.9561   33.1676   56.7343 H   0  0  0  0  0  0  0  0  0  0  0  0
   22.1279   33.0786   54.2140 H   0  0  0  0  0  0  0  0  0  0  0  0
   25.9787   33.8558   52.4231 H   0  0  0  0  0  0  0  0  0  0  0  0
   25.1119   35.0765   51.5358 H   0  0  0  0  0  0  0  0  0  0  0  0
   24.8934   32.0987   50.9803 H   0  0  0  0  0  0  0  0  0  0  0  0
   25.9808   33.1868   50.1641 H   0  0  0  0  0  0  0  0  0  0  0  0
   24.1961   34.0726   48.8333 H   0  0  0  0  0  0  0  0  0  0  0  0
   23.1551   34.1714   50.2707 H   0  0  0  0  0  0  0  0  0  0  0  0
   24.7893   31.1632   48.6228 H   0  0  0  0  0  0  0  0  0  0  0  0
   24.0388   32.1609   47.3550 H   0  0  0  0  0  0  0  0  0  0  0  0
   22.8609   29.5930   48.5932 H   0  0  0  0  0  0  0  0  0  0  0  0
   23.4757   29.7336   46.9639 H   0  0  0  0  0  0  0  0  0  0  0  0
   20.7083   30.7859   49.1029 H   0  0  0  0  0  0  0  0  0  0  0  0
   19.9809   31.7058   47.8068 H   0  0  0  0  0  0  0  0  0  0  0  0
   21.1504   33.2292   49.5101 H   0  0  0  0  0  0  0  0  0  0  0  0
   21.8574   33.3906   47.8843 H   0  0  0  0  0  0  0  0  0  0  0  0
   20.8439   32.3370   55.8325 H   0  0  0  0  0  0  0  0  0  0  0  0
   19.7185   26.9283   58.7731 H   0  0  0  0  0  0  0  0  0  0  0  0
   19.0374   26.6440   56.5211 H   0  0  0  0  0  0  0  0  0  0  0  0
   22.9294   31.7019   50.0614 H   0  0  0  0  0  0  0  0  0  0  0  0
  1  2  1  0
  2  3  2  0
  2  8  1  0
  3  4  1  0
  3 36  1  0
  4  5  1  0
  4  6  2  0
  6  7  1  0
  6 37  1  0
  7  8  2  0
  7  9  1  0
  8 38  1  0
  9 10  2  0
  9 35  1  0
 10 11  1  0
 11 12  1  0
 11 32  1  0
 12 13  1  0
 12 39  1  1
 12 40  1  0
 13 14  2  0
 13 31  1  0
 14 15  1  0
 14 41  1  0
 15 16  2  0
 15 42  1  0
 16 17  1  0
 16 43  1  0
 17 18  1  0
 17 31  2  0
 18 19  1  0
 18 44  1  0
 19 20  2  0
 19 21  1  0
 21 22  1  0
 22 23  1  0
 22 45  1  1
 22 46  1  0
 23 24  1  0
 23 47  1  1
 23 48  1  0
 24 25  1  0
 24 49  1  6
 24 50  1  0
 25 26  1  0
 25 30  1  0
 25 62  1  1
 26 27  1  0
 26 51  1  1
 26 52  1  0
 27 28  1  0
 27 53  1  1
 27 54  1  0
 28 29  1  0
 29 30  1  0
 29 55  1  1
 29 56  1  0
 30 57  1  1
 30 58  1  0
 31 59  1  0
 32 33  2  0
 32 34  1  0
 34 35  2  0
 34 60  1  0
 35 61  1  0
M  CHG  1  25   1
M  END
