CHEMBL3402742_23
     RDKit          3D

 57 59  0  0  1  0  0  0  0  0999 V2000
   21.7989   32.7104   48.7372 C   0  0  2  0  0  0  0  0  0  0  0  0
   23.1639   32.3445   49.2011 N   0  0  1  0  0  0  0  0  0  0  0  0
   23.9508   31.6400   48.1573 C   0  0  2  0  0  0  0  0  0  0  0  0
   23.8634   33.5438   49.7280 C   0  0  1  0  0  0  0  0  0  0  0  0
   25.0098   33.1293   50.6528 C   0  0  1  0  0  0  0  0  0  0  0  0
   25.0532   34.0430   51.8761 C   0  0  1  0  0  0  0  0  0  0  0  0
   23.9078   33.9027   52.7144 O   0  0  0  0  0  0  0  0  0  0  0  0
   24.0717   33.6620   54.0455 C   0  0  0  0  0  0  0  0  0  0  0  0
   25.1417   33.8384   54.5675 O   0  0  0  0  0  0  0  0  0  0  0  0
   22.9742   33.2091   54.7468 N   0  0  0  0  0  0  0  0  0  0  0  0
   22.8943   32.8488   56.1157 C   0  0  0  0  0  0  0  0  0  0  0  0
   23.9614   32.8598   57.0129 C   0  0  0  0  0  0  0  0  0  0  0  0
   23.7575   32.4522   58.3219 C   0  0  0  0  0  0  0  0  0  0  0  0
   22.5121   32.0109   58.7287 C   0  0  0  0  0  0  0  0  0  0  0  0
   21.4571   31.9745   57.8393 C   0  0  0  0  0  0  0  0  0  0  0  0
   20.0644   31.4998   58.2351 C   0  0  1  0  0  0  0  0  0  0  0  0
   19.7417   30.0576   57.9860 N   0  0  0  0  0  0  0  0  0  0  0  0
   19.4691   29.8461   56.6106 N   0  0  0  0  0  0  0  0  0  0  0  0
   19.0978   28.7094   56.0822 C   0  0  0  0  0  0  0  0  0  0  0  0
   18.8435   27.4950   56.9664 C   0  0  2  0  0  0  0  0  0  0  0  0
   20.1205   27.3726   58.2268 S   0  0  0  0  0  0  0  0  0  0  0  0
   20.1650   29.0227   58.7974 C   0  0  0  0  0  0  0  0  0  0  0  0
   20.6097   29.2919   59.8918 O   0  0  0  0  0  0  0  0  0  0  0  0
   18.9052   28.6364   54.6133 C   0  0  0  0  0  0  0  0  0  0  0  0
   19.5940   29.4857   53.7485 C   0  0  0  0  0  0  0  0  0  0  0  0
   19.3779   29.4070   52.3689 C   0  0  0  0  0  0  0  0  0  0  0  0
   20.0614   30.2345   51.5375 F   0  0  0  0  0  0  0  0  0  0  0  0
   18.4789   28.4836   51.8399 C   0  0  0  0  0  0  0  0  0  0  0  0
   17.8008   27.6294   52.6997 C   0  0  0  0  0  0  0  0  0  0  0  0
   16.9283   26.7221   52.2056 F   0  0  0  0  0  0  0  0  0  0  0  0
   18.0095   27.7228   54.0744 C   0  0  0  0  0  0  0  0  0  0  0  0
   21.6621   32.3949   56.5362 C   0  0  0  0  0  0  0  0  0  0  0  0
   21.2051   33.1392   49.5465 H   0  0  0  0  0  0  0  0  0  0  0  0
   21.2630   31.8291   48.3806 H   0  0  0  0  0  0  0  0  0  0  0  0
   21.8350   33.4342   47.9206 H   0  0  0  0  0  0  0  0  0  0  0  0
   23.4281   30.7445   47.8168 H   0  0  0  0  0  0  0  0  0  0  0  0
   24.9233   31.3219   48.5358 H   0  0  0  0  0  0  0  0  0  0  0  0
   24.1206   32.2785   47.2884 H   0  0  0  0  0  0  0  0  0  0  0  0
   24.2238   34.1833   48.9193 H   0  0  0  0  0  0  0  0  0  0  0  0
   23.1444   34.1492   50.2843 H   0  0  0  0  0  0  0  0  0  0  0  0
   24.9060   32.1020   51.0056 H   0  0  0  0  0  0  0  0  0  0  0  0
   25.9604   33.1783   50.1190 H   0  0  0  0  0  0  0  0  0  0  0  0
   25.9814   33.8327   52.4097 H   0  0  0  0  0  0  0  0  0  0  0  0
   25.1234   35.0857   51.5644 H   0  0  0  0  0  0  0  0  0  0  0  0
   22.1268   33.1489   54.2102 H   0  0  0  0  0  0  0  0  0  0  0  0
   24.9575   33.1811   56.7571 H   0  0  0  0  0  0  0  0  0  0  0  0
   24.5783   32.4668   59.0247 H   0  0  0  0  0  0  0  0  0  0  0  0
   22.3686   31.6783   59.7483 H   0  0  0  0  0  0  0  0  0  0  0  0
   19.9234   31.7076   59.2973 H   0  0  0  0  0  0  0  0  0  0  0  0
   19.3209   32.1217   57.7349 H   0  0  0  0  0  0  0  0  0  0  0  0
   18.9088   26.5708   56.3935 H   0  0  0  0  0  0  0  0  0  0  0  0
   17.8506   27.5409   57.4143 H   0  0  0  0  0  0  0  0  0  0  0  0
   20.3001   30.2068   54.1350 H   0  0  0  0  0  0  0  0  0  0  0  0
   18.3137   28.4215   50.7747 H   0  0  0  0  0  0  0  0  0  0  0  0
   17.4402   27.0592   54.7091 H   0  0  0  0  0  0  0  0  0  0  0  0
   20.8313   32.3604   55.8471 H   0  0  0  0  0  0  0  0  0  0  0  0
   23.0352   31.7034   49.9743 H   0  0  0  0  0  0  0  0  0  0  0  0
  1  2  1  0
  1 33  1  1
  1 34  1  0
  1 35  1  0
  2  3  1  0
  2  4  1  0
  2 57  1  1
  3 36  1  6
  3 37  1  0
  3 38  1  0
  4  5  1  0
  4 39  1  6
  4 40  1  0
  5  6  1  0
  5 41  1  1
  5 42  1  0
  6  7  1  0
  6 43  1  1
  6 44  1  0
  7  8  1  0
  8  9  2  0
  8 10  1  0
 10 11  1  0
 10 45  1  0
 11 12  2  0
 11 32  1  0
 12 13  1  0
 12 46  1  0
 13 14  2  0
 13 47  1  0
 14 15  1  0
 14 48  1  0
 15 16  1  0
 15 32  2  0
 16 17  1  0
 16 49  1  1
 16 50  1  0
 17 18  1  0
 17 22  1  0
 18 19  2  0
 19 20  1  0
 19 24  1  0
 20 21  1  0
 20 51  1  6
 20 52  1  0
 21 22  1  0
 22 23  2  0
 24 25  2  0
 24 31  1  0
 25 26  1  0
 25 53  1  0
 26 27  1  0
 26 28  2  0
 28 29  1  0
 28 54  1  0
 29 30  1  0
 29 31  2  0
 31 55  1  0
 32 56  1  0
M  CHG  1   2   1
M  END
