CHEMBL3402763_90
     RDKit          3D

 63 65  0  0  1  0  0  0  0  0999 V2000
   21.7318   33.7838   47.6357 C   0  0  2  0  0  0  0  0  0  0  0  0
   21.7989   32.7104   48.7372 C   0  0  1  0  0  0  0  0  0  0  0  0
   23.1639   32.3445   49.2011 N   0  0  1  0  0  0  0  0  0  0  0  0
   23.9508   31.6400   48.1573 C   0  0  1  0  0  0  0  0  0  0  0  0
   23.5042   30.1812   47.9967 C   0  0  2  0  0  0  0  0  0  0  0  0
   23.8634   33.5438   49.7280 C   0  0  1  0  0  0  0  0  0  0  0  0
   25.0098   33.1293   50.6528 C   0  0  1  0  0  0  0  0  0  0  0  0
   25.0532   34.0430   51.8761 C   0  0  1  0  0  0  0  0  0  0  0  0
   23.9078   33.9027   52.7144 O   0  0  0  0  0  0  0  0  0  0  0  0
   24.0717   33.6620   54.0455 C   0  0  0  0  0  0  0  0  0  0  0  0
   25.1417   33.8384   54.5675 O   0  0  0  0  0  0  0  0  0  0  0  0
   22.9742   33.2091   54.7468 N   0  0  0  0  0  0  0  0  0  0  0  0
   22.8943   32.8488   56.1157 C   0  0  0  0  0  0  0  0  0  0  0  0
   23.9614   32.8598   57.0129 C   0  0  0  0  0  0  0  0  0  0  0  0
   23.7575   32.4522   58.3219 C   0  0  0  0  0  0  0  0  0  0  0  0
   22.5121   32.0109   58.7287 C   0  0  0  0  0  0  0  0  0  0  0  0
   21.4571   31.9745   57.8393 C   0  0  0  0  0  0  0  0  0  0  0  0
   20.1082   31.4915   58.2834 C   0  0  1  0  0  0  0  0  0  0  0  0
   20.0139   30.0499   58.0728 N   0  0  0  0  0  0  0  0  0  0  0  0
   19.5325   29.6641   56.8531 N   0  0  0  0  0  0  0  0  0  0  0  0
   19.3969   28.4362   56.5327 C   0  0  0  0  0  0  0  0  0  0  0  0
   19.7057   27.1804   57.3465 C   0  0  1  0  0  0  0  0  0  0  0  0
   20.3747   27.4518   59.0470 S   0  0  0  0  0  0  0  0  0  0  0  0
   20.4318   29.2868   59.1545 C   0  0  0  0  0  0  0  0  0  0  0  0
   20.8441   29.7995   60.1956 O   0  0  0  0  0  0  0  0  0  0  0  0
   18.8549   28.1926   55.1554 C   0  0  0  0  0  0  0  0  0  0  0  0
   18.6676   26.8878   54.7048 C   0  0  0  0  0  0  0  0  0  0  0  0
   18.1653   26.6501   53.4285 C   0  0  0  0  0  0  0  0  0  0  0  0
   17.8519   27.7274   52.6067 C   0  0  0  0  0  0  0  0  0  0  0  0
   17.2284   27.4469   51.0222 Cl  0  0  0  0  0  0  0  0  0  0  0  0
   18.0394   29.0310   53.0578 C   0  0  0  0  0  0  0  0  0  0  0  0
   18.5416   29.2711   54.3337 C   0  0  0  0  0  0  0  0  0  0  0  0
   21.6621   32.3949   56.5362 C   0  0  0  0  0  0  0  0  0  0  0  0
   20.6905   33.9723   47.3744 H   0  0  0  0  0  0  0  0  0  0  0  0
   22.2696   33.4346   46.7542 H   0  0  0  0  0  0  0  0  0  0  0  0
   22.1877   34.7054   47.9974 H   0  0  0  0  0  0  0  0  0  0  0  0
   21.2244   33.0593   49.5976 H   0  0  0  0  0  0  0  0  0  0  0  0
   21.2719   31.8179   48.3984 H   0  0  0  0  0  0  0  0  0  0  0  0
   23.9233   32.1607   47.2002 H   0  0  0  0  0  0  0  0  0  0  0  0
   25.0036   31.6194   48.4429 H   0  0  0  0  0  0  0  0  0  0  0  0
   23.6384   29.6535   48.9410 H   0  0  0  0  0  0  0  0  0  0  0  0
   24.1038   29.7001   47.2239 H   0  0  0  0  0  0  0  0  0  0  0  0
   22.4527   30.1519   47.7110 H   0  0  0  0  0  0  0  0  0  0  0  0
   24.2377   34.1770   48.9211 H   0  0  0  0  0  0  0  0  0  0  0  0
   23.1462   34.1545   50.2808 H   0  0  0  0  0  0  0  0  0  0  0  0
   24.9072   32.1013   51.0044 H   0  0  0  0  0  0  0  0  0  0  0  0
   25.9614   33.1811   50.1210 H   0  0  0  0  0  0  0  0  0  0  0  0
   25.9814   33.8327   52.4097 H   0  0  0  0  0  0  0  0  0  0  0  0
   25.1237   35.0858   51.5646 H   0  0  0  0  0  0  0  0  0  0  0  0
   22.1260   33.1470   54.2113 H   0  0  0  0  0  0  0  0  0  0  0  0
   24.9568   33.1832   56.7570 H   0  0  0  0  0  0  0  0  0  0  0  0
   24.5782   32.4723   59.0246 H   0  0  0  0  0  0  0  0  0  0  0  0
   22.3648   31.6905   59.7506 H   0  0  0  0  0  0  0  0  0  0  0  0
   19.9731   31.7137   59.3419 H   0  0  0  0  0  0  0  0  0  0  0  0
   19.3335   31.9947   57.7048 H   0  0  0  0  0  0  0  0  0  0  0  0
   18.7990   26.5823   57.4351 H   0  0  0  0  0  0  0  0  0  0  0  0
   20.4226   26.5691   56.7986 H   0  0  0  0  0  0  0  0  0  0  0  0
   18.9134   26.0544   55.3489 H   0  0  0  0  0  0  0  0  0  0  0  0
   18.0195   25.6384   53.0776 H   0  0  0  0  0  0  0  0  0  0  0  0
   17.7927   29.8612   52.4115 H   0  0  0  0  0  0  0  0  0  0  0  0
   18.6861   30.2851   54.6814 H   0  0  0  0  0  0  0  0  0  0  0  0
   20.8261   32.3618   55.8535 H   0  0  0  0  0  0  0  0  0  0  0  0
   23.0480   31.7074   49.9786 H   0  0  0  0  0  0  0  0  0  0  0  0
  1  2  1  0
  1 34  1  6
  1 35  1  0
  1 36  1  0
  2  3  1  0
  2 37  1  1
  2 38  1  0
  3  4  1  0
  3  6  1  0
  3 63  1  1
  4  5  1  0
  4 39  1  6
  4 40  1  0
  5 41  1  1
  5 42  1  0
  5 43  1  0
  6  7  1  0
  6 44  1  6
  6 45  1  0
  7  8  1  0
  7 46  1  1
  7 47  1  0
  8  9  1  0
  8 48  1  1
  8 49  1  0
  9 10  1  0
 10 11  2  0
 10 12  1  0
 12 13  1  0
 12 50  1  0
 13 14  2  0
 13 33  1  0
 14 15  1  0
 14 51  1  0
 15 16  2  0
 15 52  1  0
 16 17  1  0
 16 53  1  0
 17 18  1  0
 17 33  2  0
 18 19  1  0
 18 54  1  1
 18 55  1  0
 19 20  1  0
 19 24  1  0
 20 21  2  0
 21 22  1  0
 21 26  1  0
 22 23  1  0
 22 56  1  1
 22 57  1  0
 23 24  1  0
 24 25  2  0
 26 27  2  0
 26 32  1  0
 27 28  1  0
 27 58  1  0
 28 29  2  0
 28 59  1  0
 29 30  1  0
 29 31  1  0
 31 32  2  0
 31 60  1  0
 32 61  1  0
 33 62  1  0
M  CHG  1   3   1
M  END
