CHEMBL3402759_5.7 redocked
     RDKit          3D

 65 68  0  0  1  0  0  0  0  0999 V2000
   16.4106   25.3905   52.0799 C   0  0  1  0  0  0  0  0  0  0  0  0
   16.8080   25.8671   53.3604 O   0  0  0  0  0  0  0  0  0  0  0  0
   17.6426   26.9619   53.4381 C   0  0  0  0  0  0  0  0  0  0  0  0
   18.0715   27.6982   52.3375 C   0  0  0  0  0  0  0  0  0  0  0  0
   18.9178   28.7875   52.5165 C   0  0  0  0  0  0  0  0  0  0  0  0
   19.3150   29.1524   53.8002 C   0  0  0  0  0  0  0  0  0  0  0  0
   18.8756   28.4381   54.9264 C   0  0  0  0  0  0  0  0  0  0  0  0
   18.0478   27.3201   54.7231 C   0  0  0  0  0  0  0  0  0  0  0  0
   19.3295   28.8541   56.2722 C   0  0  0  0  0  0  0  0  0  0  0  0
   19.6721   30.0726   56.5505 N   0  0  0  0  0  0  0  0  0  0  0  0
   20.1157   30.4603   57.8131 N   0  0  0  0  0  0  0  0  0  0  0  0
   20.4196   31.8927   57.9679 C   0  0  2  0  0  0  0  0  0  0  0  0
   21.8528   32.2615   57.5925 C   0  0  0  0  0  0  0  0  0  0  0  0
   22.8221   32.3318   58.5902 C   0  0  0  0  0  0  0  0  0  0  0  0
   24.1266   32.6909   58.2757 C   0  0  0  0  0  0  0  0  0  0  0  0
   24.4722   32.9692   56.9562 C   0  0  0  0  0  0  0  0  0  0  0  0
   23.5269   32.8988   55.9215 C   0  0  0  0  0  0  0  0  0  0  0  0
   22.2040   32.5602   56.2669 C   0  0  0  0  0  0  0  0  0  0  0  0
   23.9458   33.1441   54.5018 C   0  0  0  0  0  0  0  0  0  0  0  0
   23.2730   32.4981   53.5125 N   0  0  0  0  0  0  0  0  0  0  0  0
   23.6683   32.7284   52.2322 C   0  0  0  0  0  0  0  0  0  0  0  0
   24.7489   33.5622   51.9177 C   0  0  0  0  0  0  0  0  0  0  0  0
   25.1980   33.8713   50.6511 O   0  0  0  0  0  0  0  0  0  0  0  0
   24.3598   33.6330   49.5268 C   0  0  2  0  0  0  0  0  0  0  0  0
   24.5951   32.2258   48.9563 C   0  0  2  0  0  0  0  0  0  0  0  0
   23.8647   32.0031   47.6139 C   0  0  2  0  0  0  0  0  0  0  0  0
   23.9179   30.5300   47.1327 N   0  0  1  0  0  0  0  0  0  0  0  0
   25.3379   29.9236   47.1200 C   0  0  2  0  0  0  0  0  0  0  0  0
   22.9147   29.6301   47.8865 C   0  0  1  0  0  0  0  0  0  0  0  0
   25.4123   34.1189   53.0067 C   0  0  0  0  0  0  0  0  0  0  0  0
   25.0135   33.9569   54.2915 N   0  0  0  0  0  0  0  0  0  0  0  0
   20.3403   29.6099   58.8789 C   0  0  0  0  0  0  0  0  0  0  0  0
   20.8013   29.9247   59.9786 O   0  0  0  0  0  0  0  0  0  0  0  0
   19.9540   28.2437   58.5580 C   0  0  0  0  0  0  0  0  0  0  0  0
   19.4532   27.8908   57.3492 C   0  0  0  0  0  0  0  0  0  0  0  0
   15.8108   24.4934   52.2117 H   0  0  0  0  0  0  0  0  0  0  0  0
   15.8019   26.1220   51.5472 H   0  0  0  0  0  0  0  0  0  0  0  0
   17.2699   25.1208   51.4650 H   0  0  0  0  0  0  0  0  0  0  0  0
   17.7549   27.4483   51.3371 H   0  0  0  0  0  0  0  0  0  0  0  0
   19.2619   29.3527   51.6623 H   0  0  0  0  0  0  0  0  0  0  0  0
   19.9558   30.0155   53.9026 H   0  0  0  0  0  0  0  0  0  0  0  0
   17.6934   26.7358   55.5591 H   0  0  0  0  0  0  0  0  0  0  0  0
   20.2535   32.1561   59.0125 H   0  0  0  0  0  0  0  0  0  0  0  0
   19.7076   32.5089   57.4129 H   0  0  0  0  0  0  0  0  0  0  0  0
   22.5835   32.1125   59.6184 H   0  0  0  0  0  0  0  0  0  0  0  0
   24.8669   32.7657   59.0591 H   0  0  0  0  0  0  0  0  0  0  0  0
   25.4904   33.2528   56.7326 H   0  0  0  0  0  0  0  0  0  0  0  0
   21.4274   32.5895   55.5165 H   0  0  0  0  0  0  0  0  0  0  0  0
   23.0744   32.2346   51.4789 H   0  0  0  0  0  0  0  0  0  0  0  0
   24.5514   34.3465   48.7231 H   0  0  0  0  0  0  0  0  0  0  0  0
   23.3134   33.7376   49.8192 H   0  0  0  0  0  0  0  0  0  0  0  0
   24.2567   31.4898   49.6874 H   0  0  0  0  0  0  0  0  0  0  0  0
   25.6677   32.0768   48.8341 H   0  0  0  0  0  0  0  0  0  0  0  0
   24.2581   32.6159   46.8002 H   0  0  0  0  0  0  0  0  0  0  0  0
   22.7964   32.2011   47.7217 H   0  0  0  0  0  0  0  0  0  0  0  0
   25.6727   29.8056   48.1496 H   0  0  0  0  0  0  0  0  0  0  0  0
   25.9882   30.6063   46.5699 H   0  0  0  0  0  0  0  0  0  0  0  0
   25.2825   28.9560   46.6175 H   0  0  0  0  0  0  0  0  0  0  0  0
   23.1379   29.6980   48.9496 H   0  0  0  0  0  0  0  0  0  0  0  0
   21.9125   30.0088   47.6787 H   0  0  0  0  0  0  0  0  0  0  0  0
   23.0254   28.6074   47.5190 H   0  0  0  0  0  0  0  0  0  0  0  0
   26.2864   34.7346   52.8596 H   0  0  0  0  0  0  0  0  0  0  0  0
   20.0933   27.5032   59.3200 H   0  0  0  0  0  0  0  0  0  0  0  0
   19.1006   26.8769   57.2303 H   0  0  0  0  0  0  0  0  0  0  0  0
   23.6259   30.5588   46.1622 H   0  0  0  0  0  0  0  0  0  0  0  0
  1  2  1  0
  1 36  1  1
  1 37  1  0
  1 38  1  0
  2  3  1  0
  3  4  2  0
  3  8  1  0
  4  5  1  0
  4 39  1  0
  5  6  2  0
  5 40  1  0
  6  7  1  0
  6 41  1  0
  7  8  2  0
  7  9  1  0
  8 42  1  0
  9 10  2  0
  9 35  1  0
 10 11  1  0
 11 12  1  0
 11 32  1  0
 12 13  1  0
 12 43  1  1
 12 44  1  0
 13 14  2  0
 13 18  1  0
 14 15  1  0
 14 45  1  0
 15 16  2  0
 15 46  1  0
 16 17  1  0
 16 47  1  0
 17 18  2  0
 17 19  1  0
 18 48  1  0
 19 20  2  0
 19 31  1  0
 20 21  1  0
 21 22  2  0
 21 49  1  0
 22 23  1  0
 22 30  1  0
 23 24  1  0
 24 25  1  0
 24 50  1  6
 24 51  1  0
 25 26  1  0
 25 52  1  1
 25 53  1  0
 26 27  1  0
 26 54  1  6
 26 55  1  0
 27 28  1  0
 27 29  1  0
 27 65  1  6
 28 56  1  1
 28 57  1  0
 28 58  1  0
 29 59  1  1
 29 60  1  0
 29 61  1  0
 30 31  2  0
 30 62  1  0
 32 33  2  0
 32 34  1  0
 34 35  2  0
 34 63  1  0
 35 64  1  0
M  CHG  1  27   1
M  END
