1 flip
     RDKit          3D

 37 39  0  0  1  0  0  0  0  0999 V2000
   27.5742    1.5579  -11.2202 O   0  0  0  0  0  0  0  0  0  0  0  0
   27.1479    0.2994  -11.6692 C   0  0  2  0  0  0  0  0  0  0  0  0
   26.5267    0.4129  -13.0689 C   0  0  2  0  0  0  0  0  0  0  0  0
   25.0255    0.5956  -12.8327 C   0  0  1  0  0  0  0  0  0  0  0  0
   24.8103   -0.0581  -11.4965 C   0  0  0  0  0  0  0  0  0  0  0  0
   26.0181   -0.2298  -10.8141 C   0  0  0  0  0  0  0  0  0  0  0  0
   26.0198   -0.7704   -9.5145 C   0  0  0  0  0  0  0  0  0  0  0  0
   24.8035   -1.0882   -8.9011 C   0  0  0  0  0  0  0  0  0  0  0  0
   23.6009   -0.9385   -9.5957 C   0  0  0  0  0  0  0  0  0  0  0  0
   23.6036   -0.4366  -10.9003 C   0  0  0  0  0  0  0  0  0  0  0  0
   22.4827   -0.2805  -11.6905 O   0  0  0  0  0  0  0  0  0  0  0  0
   21.2459   -0.5698  -11.1900 C   0  0  0  0  0  0  0  0  0  0  0  0
   20.5488    0.3821  -10.4409 C   0  0  0  0  0  0  0  0  0  0  0  0
   19.2786    0.0733   -9.9499 C   0  0  0  0  0  0  0  0  0  0  0  0
   18.5920    0.9809   -9.2304 F   0  0  0  0  0  0  0  0  0  0  0  0
   18.7137   -1.1787  -10.2069 C   0  0  0  0  0  0  0  0  0  0  0  0
   19.4240   -2.1337  -10.9270 C   0  0  0  0  0  0  0  0  0  0  0  0
   18.7473   -3.7023  -11.2013 Cl  0  0  0  0  0  0  0  0  0  0  0  0
   20.6830   -1.8247  -11.4398 C   0  0  0  0  0  0  0  0  0  0  0  0
   27.5319   -1.0654   -8.5874 S   0  0  1  0  0  0  0  0  0  0  0  0
   27.2277   -2.0226   -7.5192 O   0  0  0  0  0  0  0  0  0  0  0  0
   28.5861   -1.3956   -9.5458 O   0  0  0  0  0  0  0  0  0  0  0  0
   27.9385    0.6243   -7.8274 C   0  0  1  0  0  0  0  0  0  0  0  0
   27.8181    1.5522   -8.7360 F   0  0  0  0  0  0  0  0  0  0  0  0
   27.1029    0.8106   -6.7934 F   0  0  0  0  0  0  0  0  0  0  0  0
   28.3584    1.8102  -11.7281 H   0  0  0  0  0  0  0  0  0  0  0  0
   27.9789   -0.4080  -11.7029 H   0  0  0  0  0  0  0  0  0  0  0  0
   26.6995   -0.5291  -13.6482 H   0  0  0  0  0  0  0  0  0  0  0  0
   26.9532    1.2021  -13.6359 H   0  0  0  0  0  0  0  0  0  0  0  0
   24.7973    1.6781  -12.7806 H   0  0  0  0  0  0  0  0  0  0  0  0
   24.4358    0.1715  -13.6220 H   0  0  0  0  0  0  0  0  0  0  0  0
   24.7794   -1.4657   -7.8911 H   0  0  0  0  0  0  0  0  0  0  0  0
   22.6812   -1.2310   -9.1144 H   0  0  0  0  0  0  0  0  0  0  0  0
   20.9752    1.3536  -10.2541 H   0  0  0  0  0  0  0  0  0  0  0  0
   17.7217   -1.3788   -9.8579 H   0  0  0  0  0  0  0  0  0  0  0  0
   21.1911   -2.5533  -12.0453 H   0  0  0  0  0  0  0  0  0  0  0  0
   28.9678    0.5905   -7.4583 H   0  0  0  0  0  0  0  0  0  0  0  0
  1  2  1  0
  1 26  1  0
  2  3  1  0
  2  6  1  0
  2 27  1  6
  3  4  1  0
  3 28  1  6
  3 29  1  0
  4  5  1  0
  4 30  1  1
  4 31  1  0
  5  6  2  0
  5 10  1  0
  6  7  1  0
  7  8  2  0
 20  7  1  6
  8  9  1  0
  8 32  1  0
  9 10  2  0
  9 33  1  0
 10 11  1  0
 11 12  1  0
 12 13  2  0
 12 19  1  0
 13 14  1  0
 13 34  1  0
 14 15  1  0
 14 16  2  0
 16 17  1  0
 16 35  1  0
 17 18  1  0
 17 19  2  0
 19 36  1  0
 20 21  2  0
 20 22  2  0
 20 23  1  0
 23 24  1  0
 23 25  1  0
 23 37  1  1
M  END
