7a flip
     RDKit          3D

 40 42  0  0  1  0  0  0  0  0999 V2000
   27.8986    1.1686  -10.8159 O   0  0  0  0  0  0  0  0  0  0  0  0
   27.3063    0.0821  -11.4967 C   0  0  2  0  0  0  0  0  0  0  0  0
   26.7543    0.5309  -12.8435 C   0  0  1  0  0  0  0  0  0  0  0  0
   25.2972    0.0902  -12.9073 C   0  0  1  0  0  0  0  0  0  0  0  0
   24.9356   -0.2719  -11.4777 C   0  0  0  0  0  0  0  0  0  0  0  0
   26.1058   -0.4336  -10.7289 C   0  0  0  0  0  0  0  0  0  0  0  0
   26.0415   -0.9623   -9.4361 C   0  0  0  0  0  0  0  0  0  0  0  0
   24.8001   -1.2235   -8.8639 C   0  0  0  0  0  0  0  0  0  0  0  0
   23.6290   -0.9777   -9.5693 C   0  0  0  0  0  0  0  0  0  0  0  0
   23.6838   -0.5129  -10.8898 C   0  0  0  0  0  0  0  0  0  0  0  0
   22.5621   -0.2401  -11.6444 O   0  0  0  0  0  0  0  0  0  0  0  0
   21.3109   -0.5861  -11.1952 C   0  0  0  0  0  0  0  0  0  0  0  0
   20.5549    0.3423  -10.4849 C   0  0  0  0  0  0  0  0  0  0  0  0
   19.2862    0.0063  -10.0298 C   0  0  0  0  0  0  0  0  0  0  0  0
   18.5748    0.9029   -9.3180 F   0  0  0  0  0  0  0  0  0  0  0  0
   18.7550   -1.2510  -10.3031 C   0  0  0  0  0  0  0  0  0  0  0  0
   19.5078   -2.1922  -11.0051 C   0  0  0  0  0  0  0  0  0  0  0  0
   18.8608   -3.7625  -11.3207 Cl  0  0  0  0  0  0  0  0  0  0  0  0
   20.7874   -1.8596  -11.4466 C   0  0  0  0  0  0  0  0  0  0  0  0
   27.5140   -1.2559   -8.4651 S   0  0  1  0  0  0  0  0  0  0  0  0
   27.1933   -2.2794   -7.4639 O   0  0  0  0  0  0  0  0  0  0  0  0
   28.6255   -1.4828   -9.3950 O   0  0  0  0  0  0  0  0  0  0  0  0
   27.7388    0.4232   -7.6234 C   0  0  1  0  0  0  0  0  0  0  0  0
   27.7231    1.3759   -8.5583 F   0  0  0  0  0  0  0  0  0  0  0  0
   26.7479    0.5754   -6.7503 F   0  0  0  0  0  0  0  0  0  0  0  0
   24.4377    1.1669  -13.5390 C   0  0  2  0  0  0  0  0  0  0  0  0
   28.6114    1.5312  -11.3627 H   0  0  0  0  0  0  0  0  0  0  0  0
   28.0280   -0.7165  -11.6685 H   0  0  0  0  0  0  0  0  0  0  0  0
   26.8240    1.6206  -12.9191 H   0  0  0  0  0  0  0  0  0  0  0  0
   27.3250    0.1428  -13.6861 H   0  0  0  0  0  0  0  0  0  0  0  0
   25.2257   -0.8173  -13.5111 H   0  0  0  0  0  0  0  0  0  0  0  0
   24.7387   -1.6083   -7.8634 H   0  0  0  0  0  0  0  0  0  0  0  0
   22.6833   -1.1799   -9.0869 H   0  0  0  0  0  0  0  0  0  0  0  0
   20.9427    1.3325  -10.3013 H   0  0  0  0  0  0  0  0  0  0  0  0
   17.7605   -1.4837   -9.9697 H   0  0  0  0  0  0  0  0  0  0  0  0
   21.3590   -2.5859  -11.9975 H   0  0  0  0  0  0  0  0  0  0  0  0
   28.6860    0.4534   -7.0836 H   0  0  0  0  0  0  0  0  0  0  0  0
   23.4853    0.7664  -13.8251 H   0  0  0  0  0  0  0  0  0  0  0  0
   24.8788    1.5661  -14.4435 H   0  0  0  0  0  0  0  0  0  0  0  0
   24.2853    1.9768  -12.8310 H   0  0  0  0  0  0  0  0  0  0  0  0
  1  2  1  0
  1 27  1  0
  2  3  1  0
  2  6  1  0
  2 28  1  6
  3  4  1  0
  3 29  1  1
  3 30  1  0
  4  5  1  0
  4 26  1  0
  4 31  1  6
  5  6  2  0
  5 10  1  0
  6  7  1  0
  7  8  2  0
 20  7  1  6
  8  9  1  0
  8 32  1  0
  9 10  2  0
  9 33  1  0
 10 11  1  0
 11 12  1  0
 12 13  2  0
 12 19  1  0
 13 14  1  0
 13 34  1  0
 14 15  1  0
 14 16  2  0
 16 17  1  0
 16 35  1  0
 17 18  1  0
 17 19  2  0
 19 36  1  0
 20 21  2  0
 20 22  2  0
 20 23  1  0
 23 24  1  0
 23 25  1  0
 23 37  1  1
 26 38  1  6
 26 39  1  0
 26 40  1  0
M  END
