p-xylene
     RDKit          3D

 18 18  0  0  1  0  0  0  0  0999 V2000
   -7.2944    7.1637   -0.9565 C   0  0  0  0  0  0  0  0  0  0  0  0
   -7.8666    6.0570   -1.5923 C   0  0  0  0  0  0  0  0  0  0  0  0
   -8.6603    6.2343   -2.7246 C   0  0  0  0  0  0  0  0  0  0  0  0
   -8.8944    7.5191   -3.2148 C   0  0  0  0  0  0  0  0  0  0  0  0
   -8.3035    8.6210   -2.6005 C   0  0  0  0  0  0  0  0  0  0  0  0
   -7.5004    8.4443   -1.4758 C   0  0  0  0  0  0  0  0  0  0  0  0
   -6.4979    6.9780    0.3223 C   0  0  2  0  0  0  0  0  0  0  0  0
   -9.0934    5.3789   -3.2180 H   0  0  0  0  0  0  0  0  0  0  0  0
   -8.4705    9.6119   -2.9925 H   0  0  0  0  0  0  0  0  0  0  0  0
   -7.0579    9.3041   -0.9946 H   0  0  0  0  0  0  0  0  0  0  0  0
   -5.7032    7.7224    0.3851 H   0  0  0  0  0  0  0  0  0  0  0  0
   -5.9879    6.0152    0.2721 H   0  0  0  0  0  0  0  0  0  0  0  0
   -7.1478    7.0286    1.1958 H   0  0  0  0  0  0  0  0  0  0  0  0
   -9.7921    7.7332   -4.4251 C   0  0  1  0  0  0  0  0  0  0  0  0
   -9.8507    8.8261   -4.6574 H   0  0  0  0  0  0  0  0  0  0  0  0
   -9.3684    7.1871   -5.3050 H   0  0  0  0  0  0  0  0  0  0  0  0
  -10.8172    7.3437   -4.2027 H   0  0  0  0  0  0  0  0  0  0  0  0
   -7.6937    5.0633   -1.2062 H   0  0  0  0  0  0  0  0  0  0  0  0
  1  2  1  0
  1  6  2  0
  1  7  1  0
  2  3  2  0
  2 18  1  0
  3  4  1  0
  3  8  1  0
  4  5  2  0
  4 14  1  0
  5  6  1  0
  5  9  1  0
  6 10  1  0
  7 11  1  1
  7 12  1  0
  7 13  1  0
 14 15  1  6
 14 16  1  0
 14 17  1  0
M  END
