ortho methyl ethyl benzene
     RDKit          3D

 21 21  0  0  1  0  0  0  0  0999 V2000
   -7.2944    7.1637   -0.9565 C   0  0  0  0  0  0  0  0  0  0  0  0
   -7.8666    6.0570   -1.5923 C   0  0  0  0  0  0  0  0  0  0  0  0
   -8.6603    6.2343   -2.7246 C   0  0  0  0  0  0  0  0  0  0  0  0
   -8.8944    7.5191   -3.2148 C   0  0  0  0  0  0  0  0  0  0  0  0
   -8.3035    8.6210   -2.6005 C   0  0  0  0  0  0  0  0  0  0  0  0
   -7.5004    8.4443   -1.4758 C   0  0  0  0  0  0  0  0  0  0  0  0
   -6.4979    6.9780    0.3223 C   0  0  2  0  0  0  0  0  0  0  0  0
   -7.4000    7.0133    1.5715 C   0  0  2  0  0  0  0  0  0  0  0  0
   -9.0934    5.3789   -3.2180 H   0  0  0  0  0  0  0  0  0  0  0  0
   -9.5294    7.6705   -4.0709 H   0  0  0  0  0  0  0  0  0  0  0  0
   -8.4705    9.6119   -2.9925 H   0  0  0  0  0  0  0  0  0  0  0  0
   -7.0579    9.3041   -0.9946 H   0  0  0  0  0  0  0  0  0  0  0  0
   -5.7032    7.7224    0.3851 H   0  0  0  0  0  0  0  0  0  0  0  0
   -5.9879    6.0152    0.2721 H   0  0  0  0  0  0  0  0  0  0  0  0
   -6.8615    6.5954    2.4239 H   0  0  0  0  0  0  0  0  0  0  0  0
   -8.2611    6.3695    1.3905 H   0  0  0  0  0  0  0  0  0  0  0  0
   -7.7215    8.0330    1.7836 H   0  0  0  0  0  0  0  0  0  0  0  0
   -7.6456    4.6555   -1.0412 C   0  0  1  0  0  0  0  0  0  0  0  0
   -8.1808    3.9130   -1.6848 H   0  0  0  0  0  0  0  0  0  0  0  0
   -6.5508    4.4248   -1.0369 H   0  0  0  0  0  0  0  0  0  0  0  0
   -8.0429    4.5986    0.0032 H   0  0  0  0  0  0  0  0  0  0  0  0
  1  2  1  0
  1  6  2  0
  1  7  1  0
  2  3  2  0
  2 18  1  0
  3  4  1  0
  3  9  1  0
  4  5  2  0
  4 10  1  0
  5  6  1  0
  5 11  1  0
  6 12  1  0
  7  8  1  0
  7 13  1  1
  7 14  1  0
  8 15  1  1
  8 16  1  0
  8 17  1  0
 18 19  1  6
 18 20  1  0
 18 21  1  0
M  END
