butyl benzene
     RDKit          3D

 24 24  0  0  1  0  0  0  0  0999 V2000
   -7.2944    7.1637   -0.9565 C   0  0  0  0  0  0  0  0  0  0  0  0
   -7.8666    6.0570   -1.5923 C   0  0  0  0  0  0  0  0  0  0  0  0
   -8.6603    6.2343   -2.7246 C   0  0  0  0  0  0  0  0  0  0  0  0
   -8.8944    7.5191   -3.2148 C   0  0  0  0  0  0  0  0  0  0  0  0
   -8.3035    8.6210   -2.6005 C   0  0  0  0  0  0  0  0  0  0  0  0
   -7.5004    8.4443   -1.4758 C   0  0  0  0  0  0  0  0  0  0  0  0
   -6.4979    6.9780    0.3223 C   0  0  2  0  0  0  0  0  0  0  0  0
   -7.4000    7.0133    1.5715 C   0  0  2  0  0  0  0  0  0  0  0  0
   -7.9542    8.3874    1.9637 C   0  0  2  0  0  0  0  0  0  0  0  0
   -6.9209    9.3102    2.5970 C   0  0  1  0  0  0  0  0  0  0  0  0
   -7.7099    5.0629   -1.2014 H   0  0  0  0  0  0  0  0  0  0  0  0
   -9.0934    5.3789   -3.2180 H   0  0  0  0  0  0  0  0  0  0  0  0
   -9.5294    7.6705   -4.0709 H   0  0  0  0  0  0  0  0  0  0  0  0
   -8.4705    9.6119   -2.9925 H   0  0  0  0  0  0  0  0  0  0  0  0
   -7.0579    9.3041   -0.9946 H   0  0  0  0  0  0  0  0  0  0  0  0
   -5.7032    7.7224    0.3851 H   0  0  0  0  0  0  0  0  0  0  0  0
   -5.9879    6.0152    0.2721 H   0  0  0  0  0  0  0  0  0  0  0  0
   -6.8615    6.5954    2.4239 H   0  0  0  0  0  0  0  0  0  0  0  0
   -8.2611    6.3695    1.3905 H   0  0  0  0  0  0  0  0  0  0  0  0
   -8.7574    8.2357    2.6817 H   0  0  0  0  0  0  0  0  0  0  0  0
   -8.3961    8.8844    1.1035 H   0  0  0  0  0  0  0  0  0  0  0  0
   -7.3672   10.2723    2.8440 H   0  0  0  0  0  0  0  0  0  0  0  0
   -6.5248    8.8767    3.5157 H   0  0  0  0  0  0  0  0  0  0  0  0
   -6.0868    9.4992    1.9206 H   0  0  0  0  0  0  0  0  0  0  0  0
  1  2  1  0
  1  6  2  0
  1  7  1  0
  2  3  2  0
  2 11  1  0
  3  4  1  0
  3 12  1  0
  4  5  2  0
  4 13  1  0
  5  6  1  0
  5 14  1  0
  6 15  1  0
  7  8  1  0
  7 16  1  1
  7 17  1  0
  8  9  1  0
  8 18  1  1
  8 19  1  0
  9 10  1  0
  9 20  1  1
  9 21  1  0
 10 22  1  1
 10 23  1  0
 10 24  1  0
M  END
