19
     RDKit          3D

 55 58  0  0  1  0  0  0  0  0999 V2000
   -1.4880    7.9982   20.4959 C   0  0  1  0  0  0  0  0  0  0  0  0
   -0.7108    7.2025   19.6790 O   0  0  0  0  0  0  0  0  0  0  0  0
    0.6250    7.5030   19.5069 C   0  0  0  0  0  0  0  0  0  0  0  0
    1.0320    8.6430   20.1908 C   0  0  0  0  0  0  0  0  0  0  0  0
    2.3586    9.0680   20.0544 C   0  0  0  0  0  0  0  0  0  0  0  0
    3.2766    8.3671   19.2449 C   0  0  0  0  0  0  0  0  0  0  0  0
    4.6461    8.8413   19.0563 C   0  0  0  0  0  0  0  0  0  0  0  0
    5.5434    8.2270   18.3174 N   0  0  0  0  0  0  0  0  0  0  0  0
    6.6786    8.8970   18.1847 C   0  0  0  0  0  0  0  0  0  0  0  0
    7.7721    8.4176   17.3121 C   0  0  0  0  0  0  0  0  0  0  0  0
    8.7499    9.1122   17.0454 O   0  0  0  0  0  0  0  0  0  0  0  0
    7.5779    7.1693   16.8413 N   0  0  0  0  0  0  0  0  0  0  0  0
    8.3689    6.3364   16.0194 C   0  0  0  0  0  0  0  0  0  0  0  0
    9.7668    6.4147   16.0004 C   0  0  0  0  0  0  0  0  0  0  0  0
   10.5150    5.4886   15.2816 C   0  0  0  0  0  0  0  0  0  0  0  0
    9.8750    4.4611   14.5948 C   0  0  0  0  0  0  0  0  0  0  0  0
    8.4863    4.3866   14.5828 C   0  0  0  0  0  0  0  0  0  0  0  0
    7.7150    5.3324   15.2703 C   0  0  0  0  0  0  0  0  0  0  0  0
    6.3049    5.3200   15.1815 N   0  0  0  0  0  0  0  0  0  0  0  0
    5.5929    4.0459   15.0839 C   0  0  1  0  0  0  0  0  0  0  0  0
    4.0683    4.2215   15.2729 C   0  0  1  0  0  0  0  0  0  0  0  0
    3.5568    5.3004   14.3496 N   0  0  1  0  0  0  0  0  0  0  0  0
    4.2943    6.6069   14.5125 C   0  0  1  0  0  0  0  0  0  0  0  0
    5.7975    6.3804   14.3095 C   0  0  1  0  0  0  0  0  0  0  0  0
    6.7331   10.0974   18.8745 C   0  0  0  0  0  0  0  0  0  0  0  0
    5.2315   10.3548   19.7030 S   0  0  0  0  0  0  0  0  0  0  0  0
    2.8359    7.2053   18.5813 C   0  0  0  0  0  0  0  0  0  0  0  0
    1.5146    6.8020   18.7268 C   0  0  0  0  0  0  0  0  0  0  0  0
    1.0793    5.6827   18.0470 O   0  0  0  0  0  0  0  0  0  0  0  0
    1.9711    4.9786   17.2639 C   0  0  1  0  0  0  0  0  0  0  0  0
   -2.5080    7.6144   20.5132 H   0  0  0  0  0  0  0  0  0  0  0  0
   -1.0794    7.9900   21.5064 H   0  0  0  0  0  0  0  0  0  0  0  0
   -1.4903    9.0189   20.1132 H   0  0  0  0  0  0  0  0  0  0  0  0
    0.3254    9.1673   20.8174 H   0  0  0  0  0  0  0  0  0  0  0  0
    2.6833    9.9507   20.5859 H   0  0  0  0  0  0  0  0  0  0  0  0
    6.6726    6.7626   17.0253 H   0  0  0  0  0  0  0  0  0  0  0  0
   10.2912    7.1772   16.5562 H   0  0  0  0  0  0  0  0  0  0  0  0
   11.5928    5.5594   15.2661 H   0  0  0  0  0  0  0  0  0  0  0  0
   10.4574    3.7160   14.0730 H   0  0  0  0  0  0  0  0  0  0  0  0
    8.0275    3.5874   14.0234 H   0  0  0  0  0  0  0  0  0  0  0  0
    5.7941    3.6141   14.1028 H   0  0  0  0  0  0  0  0  0  0  0  0
    5.9587    3.3291   15.8197 H   0  0  0  0  0  0  0  0  0  0  0  0
    3.5499    3.2844   15.0689 H   0  0  0  0  0  0  0  0  0  0  0  0
    3.8458    4.4913   16.3063 H   0  0  0  0  0  0  0  0  0  0  0  0
    3.6750    4.9846   13.3976 H   0  0  0  0  0  0  0  0  0  0  0  0
    3.9075    7.3317   13.7958 H   0  0  0  0  0  0  0  0  0  0  0  0
    4.0772    7.0031   15.5040 H   0  0  0  0  0  0  0  0  0  0  0  0
    6.3540    7.3067   14.4584 H   0  0  0  0  0  0  0  0  0  0  0  0
    5.9867    6.0777   13.2790 H   0  0  0  0  0  0  0  0  0  0  0  0
    7.5454   10.8075   18.9254 H   0  0  0  0  0  0  0  0  0  0  0  0
    3.5405    6.6703   17.9662 H   0  0  0  0  0  0  0  0  0  0  0  0
    1.4614    4.1317   16.8045 H   0  0  0  0  0  0  0  0  0  0  0  0
    2.3651    5.6316   16.4851 H   0  0  0  0  0  0  0  0  0  0  0  0
    2.7914    4.6164   17.8836 H   0  0  0  0  0  0  0  0  0  0  0  0
    2.5733    5.4496   14.5248 H   0  0  0  0  0  0  0  0  0  0  0  0
  1  2  1  0
  1 31  1  1
  1 32  1  0
  1 33  1  0
  2  3  1  0
  3 28  1  0
  3  4  2  0
  4  5  1  0
  4 34  1  0
  5  6  2  0
  5 35  1  0
  6  7  1  0
  6 27  1  0
  7 26  1  0
  7  8  2  0
  8  9  1  0
  9 10  1  0
  9 25  2  0
 10 11  2  0
 10 12  1  0
 12 13  1  0
 12 36  1  0
 13 18  1  0
 13 14  2  0
 14 15  1  0
 14 37  1  0
 15 16  2  0
 15 38  1  0
 16 17  1  0
 16 39  1  0
 17 18  2  0
 17 40  1  0
 18 19  1  0
 19 24  1  0
 19 20  1  0
 20 21  1  0
 20 41  1  6
 20 42  1  0
 21 22  1  0
 21 43  1  6
 21 44  1  0
 22 23  1  0
 22 45  1  6
 22 55  1  0
 23 24  1  0
 23 46  1  6
 23 47  1  0
 24 48  1  1
 24 49  1  0
 25 26  1  0
 25 50  1  0
 27 28  2  0
 27 51  1  0
 28 29  1  0
 29 30  1  0
 30 52  1  6
 30 53  1  0
 30 54  1  0
M  CHG  1  22   1
M  END
