5neu
     RDKit          3D

 61 65  0  0  1  0  0  0  0  0999 V2000
   29.4571    8.7056   -6.8619 C   0  0  0  0  0  0  0  0  0  0  0  0
   28.7407    8.3611   -5.7437 N   0  0  0  0  0  0  0  0  0  0  0  0
   28.7337    7.1523   -5.3141 C   0  0  0  0  0  0  0  0  0  0  0  0
   29.4016    6.1864   -6.0186 N   0  0  0  0  0  0  0  0  0  0  0  0
   30.1186    6.3785   -7.1563 C   0  0  0  0  0  0  0  0  0  0  0  0
   30.1789    7.7855   -7.5948 C   0  0  0  0  0  0  0  0  0  0  0  0
   29.4293   10.0600   -7.1394 N   0  0  0  0  0  0  0  0  0  0  0  0
   28.0392    6.8512   -4.1137 N   0  0  0  0  0  0  0  0  0  0  0  0
   30.6222    5.4054   -7.7088 O   0  0  0  0  0  0  0  0  0  0  0  0
   31.0382    8.1626   -8.7615 C   0  0  0  0  0  0  0  0  0  0  0  0
   28.9256   11.1732   -6.3380 C   0  0  1  0  0  0  0  0  0  0  0  0
   29.8374   11.5371   -5.1605 C   0  0  1  0  0  0  0  0  0  0  0  0
   29.3667   12.9504   -4.7665 C   0  0  1  0  0  0  0  0  0  0  0  0
   29.0113   13.6306   -6.1146 C   0  0  2  0  0  0  0  0  0  0  0  0
   28.8745   12.4793   -7.1433 C   0  0  2  0  0  0  0  0  0  0  0  0
   29.8087   10.5879   -4.1140 O   0  0  0  0  0  0  0  0  0  0  0  0
   28.2564   12.9415   -3.8813 O   0  0  0  0  0  0  0  0  0  0  0  0
   30.0392   14.7118   -6.5198 C   0  0  2  0  0  0  0  0  0  0  0  0
   29.7276   15.2869   -7.7721 O   0  0  0  0  0  0  0  0  0  0  0  0
   32.3853    7.1819   -9.3591 S   0  0  0  0  0  0  0  0  0  0  0  0
   32.8630    8.5158  -10.3947 C   0  0  0  0  0  0  0  0  0  0  0  0
   31.9328    9.5657  -10.2410 C   0  0  0  0  0  0  0  0  0  0  0  0
   30.9258    9.3164   -9.3705 N   0  0  0  0  0  0  0  0  0  0  0  0
   33.9624    8.6519  -11.2481 C   0  0  0  0  0  0  0  0  0  0  0  0
   34.1278    9.8600  -11.9235 C   0  0  0  0  0  0  0  0  0  0  0  0
   33.2225   10.9031  -11.7660 C   0  0  0  0  0  0  0  0  0  0  0  0
   32.1098   10.7680  -10.9388 C   0  0  0  0  0  0  0  0  0  0  0  0
   29.3697    5.2384   -5.6788 H   0  0  0  0  0  0  0  0  0  0  0  0
   30.0840   10.3708   -7.8442 H   0  0  0  0  0  0  0  0  0  0  0  0
   28.0575    5.9040   -3.7642 H   0  0  0  0  0  0  0  0  0  0  0  0
   27.9302   10.9504   -5.9479 H   0  0  0  0  0  0  0  0  0  0  0  0
   30.8632   11.6091   -5.5306 H   0  0  0  0  0  0  0  0  0  0  0  0
   30.1739   13.4728   -4.2504 H   0  0  0  0  0  0  0  0  0  0  0  0
   28.0446   14.1298   -6.0173 H   0  0  0  0  0  0  0  0  0  0  0  0
   27.9593   12.5555   -7.7315 H   0  0  0  0  0  0  0  0  0  0  0  0
   29.7061   12.5125   -7.8524 H   0  0  0  0  0  0  0  0  0  0  0  0
   29.6657    9.7231   -4.5132 H   0  0  0  0  0  0  0  0  0  0  0  0
   28.5058   12.4569   -3.0862 H   0  0  0  0  0  0  0  0  0  0  0  0
   31.0395   14.2837   -6.5787 H   0  0  0  0  0  0  0  0  0  0  0  0
   30.0706   15.5071   -5.7746 H   0  0  0  0  0  0  0  0  0  0  0  0
   28.9283   15.8146   -7.6747 H   0  0  0  0  0  0  0  0  0  0  0  0
   34.6740    7.8498  -11.3709 H   0  0  0  0  0  0  0  0  0  0  0  0
   34.9744    9.9974  -12.5784 H   0  0  0  0  0  0  0  0  0  0  0  0
   33.3931   11.8332  -12.2856 H   0  0  0  0  0  0  0  0  0  0  0  0
   31.4194   11.5899  -10.8164 H   0  0  0  0  0  0  0  0  0  0  0  0
   26.3563    9.8339   -1.5731 N   0  0  0  0  0  0  0  0  0  0  0  0
   26.4283   10.0509   -2.9590 C   0  0  0  0  0  0  0  0  0  0  0  0
   26.9826    9.0685   -3.7958 C   0  0  0  0  0  0  0  0  0  0  0  0
   27.4649    7.8691   -3.2467 C   0  0  0  0  0  0  0  0  0  0  0  0
   27.3929    7.6520   -1.8609 C   0  0  0  0  0  0  0  0  0  0  0  0
   26.8386    8.6345   -1.0241 C   0  0  0  0  0  0  0  0  0  0  0  0
   27.0392    9.2390   -4.8845 H   0  0  0  0  0  0  0  0  0  0  0  0
   27.7718    6.7097   -1.4297 H   0  0  0  0  0  0  0  0  0  0  0  0
   25.9056   11.3508   -3.5538 C   0  0  1  0  0  0  0  0  0  0  0  0
   26.0491   11.3374   -4.6634 H   0  0  0  0  0  0  0  0  0  0  0  0
   24.8166   11.4566   -3.3198 H   0  0  0  0  0  0  0  0  0  0  0  0
   26.4669   12.2138   -3.1155 H   0  0  0  0  0  0  0  0  0  0  0  0
   26.7605    8.3993    0.4776 C   0  0  1  0  0  0  0  0  0  0  0  0
   27.1909    7.3955    0.7208 H   0  0  0  0  0  0  0  0  0  0  0  0
   27.3418    9.1933    1.0102 H   0  0  0  0  0  0  0  0  0  0  0  0
   25.6915    8.4362    0.8058 H   0  0  0  0  0  0  0  0  0  0  0  0
  1  2  1  0
  1  6  2  0
  1  7  1  0
  2  3  2  0
  3  4  1  0
  3  8  1  0
  4  5  1  0
  4 28  1  0
  5  6  1  0
  5  9  2  0
  6 10  1  0
  7 11  1  0
  7 29  1  0
  8 30  1  0
  8 49  1  0
 10 20  1  0
 10 23  2  0
 11 12  1  0
 11 15  1  0
 11 31  1  1
 12 13  1  0
 12 16  1  0
 12 32  1  6
 13 14  1  0
 13 17  1  0
 13 33  1  1
 14 15  1  0
 14 18  1  0
 14 34  1  1
 15 35  1  6
 15 36  1  0
 16 37  1  0
 17 38  1  0
 18 19  1  0
 18 39  1  6
 18 40  1  0
 19 41  1  0
 20 21  1  0
 21 22  2  0
 21 24  1  0
 22 23  1  0
 22 27  1  0
 24 25  2  0
 24 42  1  0
 25 26  1  0
 25 43  1  0
 26 27  2  0
 26 44  1  0
 27 45  1  0
 46 47  2  0
 46 51  1  0
 47 48  1  0
 47 54  1  0
 48 49  2  0
 48 52  1  0
 49 50  1  0
 50 51  2  0
 50 53  1  0
 51 58  1  0
 54 55  1  6
 54 56  1  0
 54 57  1  0
 58 59  1  6
 58 60  1  0
 58 61  1  0
M  END
