14
     RDKit          3D

 43 45  0  0  1  0  0  0  0  0999 V2000
   32.1452   37.7901   38.8237 C   0  0  0  0  0  0  0  0  0  0  0  0
   31.3706   36.7862   39.4272 C   0  0  0  0  0  0  0  0  0  0  0  0
   32.4629   31.8767   41.1678 C   0  0  2  0  0  0  0  0  0  0  0  0
   30.9813   33.5579   40.1894 N   0  0  0  0  0  0  0  0  0  0  0  0
   31.1470   35.5720   38.7533 C   0  0  0  0  0  0  0  0  0  0  0  0
   32.8950   34.3320   41.6226 C   0  0  1  0  0  0  0  0  0  0  0  0
   33.3568   33.3332   39.2985 C   0  0  1  0  0  0  0  0  0  0  0  0
   32.4133   33.3116   40.5442 C   0  0  1  0  0  0  0  0  0  0  0  0
   31.7186   35.3555   37.4777 C   0  0  0  0  0  0  0  0  0  0  0  0
   32.4979   36.3659   36.8814 C   0  0  0  0  0  0  0  0  0  0  0  0
   32.7059   37.5988   37.5387 C   0  0  0  0  0  0  0  0  0  0  0  0
   33.4988   38.6655   36.9024 C   0  0  0  0  0  0  0  0  0  0  0  0
   33.0633   40.0091   36.9749 C   0  0  0  0  0  0  0  0  0  0  0  0
   33.7977   41.0500   36.3751 C   0  0  0  0  0  0  0  0  0  0  0  0
   33.6779   42.4645   36.2271 C   0  0  0  0  0  0  0  0  0  0  0  0
   32.6414   43.2557   36.7283 N   0  0  0  0  0  0  0  0  0  0  0  0
   34.6529   42.9697   35.5362 N   0  0  0  0  0  0  0  0  0  0  0  0
   35.4540   41.9218   35.2178 N   0  0  0  0  0  0  0  0  0  0  0  0
   34.9921   40.7063   35.6865 C   0  0  0  0  0  0  0  0  0  0  0  0
   35.4557   39.3815   35.5992 C   0  0  0  0  0  0  0  0  0  0  0  0
   34.7003   38.3622   36.2126 C   0  0  0  0  0  0  0  0  0  0  0  0
   30.3484   34.4845   39.4176 C   0  0  0  0  0  0  0  0  0  0  0  0
   29.1258   34.4471   39.2426 O   0  0  0  0  0  0  0  0  0  0  0  0
   32.2987   38.7193   39.3562 H   0  0  0  0  0  0  0  0  0  0  0  0
   30.9231   36.9510   40.3909 H   0  0  0  0  0  0  0  0  0  0  0  0
   33.4762   31.6230   41.4925 H   0  0  0  0  0  0  0  0  0  0  0  0
   32.1406   31.1209   40.4436 H   0  0  0  0  0  0  0  0  0  0  0  0
   31.8113   31.7935   42.0433 H   0  0  0  0  0  0  0  0  0  0  0  0
   30.3384   32.8981   40.6175 H   0  0  0  0  0  0  0  0  0  0  0  0
   32.8769   35.3590   41.2513 H   0  0  0  0  0  0  0  0  0  0  0  0
   32.2515   34.2881   42.5013 H   0  0  0  0  0  0  0  0  0  0  0  0
   33.9132   34.1078   41.9456 H   0  0  0  0  0  0  0  0  0  0  0  0
   33.5459   34.3517   38.9583 H   0  0  0  0  0  0  0  0  0  0  0  0
   34.3311   32.9048   39.5340 H   0  0  0  0  0  0  0  0  0  0  0  0
   32.9420   32.7630   38.4645 H   0  0  0  0  0  0  0  0  0  0  0  0
   31.5554   34.4249   36.9578 H   0  0  0  0  0  0  0  0  0  0  0  0
   32.9213   36.1945   35.8997 H   0  0  0  0  0  0  0  0  0  0  0  0
   32.1356   40.2416   37.4794 H   0  0  0  0  0  0  0  0  0  0  0  0
   31.8336   42.8020   37.1510 H   0  0  0  0  0  0  0  0  0  0  0  0
   32.4811   44.1691   36.3175 H   0  0  0  0  0  0  0  0  0  0  0  0
   36.3019   42.0849   34.6810 H   0  0  0  0  0  0  0  0  0  0  0  0
   36.3724   39.1426   35.0772 H   0  0  0  0  0  0  0  0  0  0  0  0
   35.0445   37.3376   36.1585 H   0  0  0  0  0  0  0  0  0  0  0  0
  1  2  1  0
  1 11  2  0
  1 24  1  0
  2  5  2  0
  2 25  1  0
  3  8  1  0
  3 26  1  1
  3 27  1  0
  3 28  1  0
  8  4  1  6
  4 22  1  0
  4 29  1  0
  5  9  1  0
  5 22  1  0
  6  8  1  0
  6 30  1  6
  6 31  1  0
  6 32  1  0
  7  8  1  0
  7 33  1  6
  7 34  1  0
  7 35  1  0
  9 10  2  0
  9 36  1  0
 10 11  1  0
 10 37  1  0
 11 12  1  0
 12 13  2  0
 12 21  1  0
 13 14  1  0
 13 38  1  0
 14 15  1  0
 14 19  2  0
 15 16  1  0
 15 17  2  0
 16 39  1  0
 16 40  1  0
 17 18  1  0
 18 19  1  0
 18 41  1  0
 19 20  1  0
 20 21  2  0
 20 42  1  0
 21 43  1  0
 22 23  2  0
M  END
