18
     RDKit          3D

 36 38  0  0  1  0  0  0  0  0999 V2000
   30.0552   33.1609   38.6498 O   0  0  0  0  0  0  0  0  0  0  0  0
   32.4958   36.3598   36.8814 C   0  0  0  0  0  0  0  0  0  0  0  0
   29.0628   34.8844   40.2143 O   0  0  0  0  0  0  0  0  0  0  0  0
   31.7342   35.3394   37.4867 C   0  0  0  0  0  0  0  0  0  0  0  0
   31.3939   33.6980   40.9330 C   0  0  1  0  0  0  0  0  0  0  0  0
   31.1837   35.5535   38.7677 C   0  0  0  0  0  0  0  0  0  0  0  0
   30.8696   32.4133   41.6256 C   0  0  2  0  0  0  0  0  0  0  0  0
   30.2433   34.2677   39.5880 S   0  0  1  0  0  0  0  0  0  0  0  0
   31.3941   36.7694   39.4489 C   0  0  0  0  0  0  0  0  0  0  0  0
   32.1524   37.7858   38.8361 C   0  0  0  0  0  0  0  0  0  0  0  0
   32.7052   37.5958   37.5427 C   0  0  0  0  0  0  0  0  0  0  0  0
   33.4974   38.6647   36.9046 C   0  0  0  0  0  0  0  0  0  0  0  0
   33.0610   40.0131   36.9796 C   0  0  0  0  0  0  0  0  0  0  0  0
   33.7990   41.0540   36.3754 C   0  0  0  0  0  0  0  0  0  0  0  0
   33.6845   42.4727   36.2338 C   0  0  0  0  0  0  0  0  0  0  0  0
   32.6448   43.2527   36.7454 N   0  0  0  0  0  0  0  0  0  0  0  0
   34.6678   42.9821   35.5507 N   0  0  0  0  0  0  0  0  0  0  0  0
   35.4648   41.9261   35.2180 N   0  0  0  0  0  0  0  0  0  0  0  0
   34.9988   40.7096   35.6853 C   0  0  0  0  0  0  0  0  0  0  0  0
   35.4572   39.3815   35.5986 C   0  0  0  0  0  0  0  0  0  0  0  0
   34.7002   38.3605   36.2113 C   0  0  0  0  0  0  0  0  0  0  0  0
   32.9094   36.1954   35.8971 H   0  0  0  0  0  0  0  0  0  0  0  0
   31.5803   34.3988   36.9734 H   0  0  0  0  0  0  0  0  0  0  0  0
   31.5106   34.5088   41.6489 H   0  0  0  0  0  0  0  0  0  0  0  0
   32.3710   33.5065   40.4881 H   0  0  0  0  0  0  0  0  0  0  0  0
   31.5416   32.0998   42.4237 H   0  0  0  0  0  0  0  0  0  0  0  0
   30.7952   31.5918   40.9111 H   0  0  0  0  0  0  0  0  0  0  0  0
   29.8846   32.5771   42.0586 H   0  0  0  0  0  0  0  0  0  0  0  0
   30.9624   36.9298   40.4233 H   0  0  0  0  0  0  0  0  0  0  0  0
   32.3045   38.7169   39.3616 H   0  0  0  0  0  0  0  0  0  0  0  0
   32.1448   40.2618   37.4923 H   0  0  0  0  0  0  0  0  0  0  0  0
   31.8462   42.8000   37.1884 H   0  0  0  0  0  0  0  0  0  0  0  0
   32.5120   44.2130   36.4378 H   0  0  0  0  0  0  0  0  0  0  0  0
   36.3184   42.0915   34.6871 H   0  0  0  0  0  0  0  0  0  0  0  0
   36.3705   39.1483   35.0700 H   0  0  0  0  0  0  0  0  0  0  0  0
   35.0515   37.3427   36.1547 H   0  0  0  0  0  0  0  0  0  0  0  0
  1  8  2  0
  2  4  1  0
  2 11  2  0
  2 22  1  0
  3  8  2  0
  4  6  2  0
  4 23  1  0
  5  7  1  0
  5  8  1  0
  5 24  1  1
  5 25  1  0
  8  6  1  6
  6  9  1  0
  7 26  1  1
  7 27  1  0
  7 28  1  0
  9 10  2  0
  9 29  1  0
 10 11  1  0
 10 30  1  0
 11 12  1  0
 12 13  2  0
 12 21  1  0
 13 14  1  0
 13 31  1  0
 14 15  1  0
 14 19  2  0
 15 16  1  0
 15 17  2  0
 16 32  1  0
 16 33  1  0
 17 18  1  0
 18 19  1  0
 18 34  1  0
 19 20  1  0
 20 21  2  0
 20 35  1  0
 21 36  1  0
M  END
