25e
     RDKit          3D

 54 56  0  0  1  0  0  0  0  0999 V2000
    9.4675   11.9637   20.2839 C   0  0  0  0  0  0  0  0  0  0  0  0
   10.6494   11.8548   20.9830 C   0  0  0  0  0  0  0  0  0  0  0  0
   12.8604   13.4063   22.8147 C   0  0  0  0  0  0  0  0  0  0  0  0
   12.9565   13.6521   24.1690 C   0  0  0  0  0  0  0  0  0  0  0  0
   10.6862   12.3834   18.2773 C   0  0  0  0  0  0  0  0  0  0  0  0
   13.6335   11.3814   24.5434 C   0  0  0  0  0  0  0  0  0  0  0  0
   11.8735   12.2622   18.9715 C   0  0  0  0  0  0  0  0  0  0  0  0
    9.4778   12.2248   18.9296 C   0  0  0  0  0  0  0  0  0  0  0  0
   11.8571   11.9994   20.3278 C   0  0  0  0  0  0  0  0  0  0  0  0
   13.1483   12.1467   22.3302 C   0  0  0  0  0  0  0  0  0  0  0  0
   13.3415   12.6402   25.0229 C   0  0  0  0  0  0  0  0  0  0  0  0
   13.5376   11.1426   23.1891 C   0  0  0  0  0  0  0  0  0  0  0  0
   15.1232   13.4517   17.4001 C   0  0  0  0  0  0  0  0  0  0  0  0
   13.4324   11.2582   17.5264 C   0  0  0  0  0  0  0  0  0  0  0  0
   13.1196   12.3531   18.2201 C   0  0  0  0  0  0  0  0  0  0  0  0
   14.0093   13.4805   18.1487 C   0  0  0  0  0  0  0  0  0  0  0  0
   15.4612   12.2247   16.6414 C   0  0  0  0  0  0  0  0  0  0  0  0
   14.5285   16.1585   20.4330 C   0  0  1  0  0  0  0  0  0  0  0  0
    7.7868    9.2180   17.6464 C   0  0  1  0  0  0  0  0  0  0  0  0
   14.8110    9.9475   16.0444 C   0  0  1  0  0  0  0  0  0  0  0  0
   14.5439   14.7242   19.9661 C   0  0  2  0  0  0  0  0  0  0  0  0
    8.5869   10.1009   16.7187 C   0  0  2  0  0  0  0  0  0  0  0  0
   14.5660   11.1746   16.7607 N   0  0  0  0  0  0  0  0  0  0  0  0
    8.2016   12.3477   18.2619 N   0  0  0  0  0  0  0  0  0  0  0  0
   16.4864   12.2168   15.9732 O   0  0  0  0  0  0  0  0  0  0  0  0
    6.4993   11.6555   16.4630 O   0  0  0  0  0  0  0  0  0  0  0  0
    8.7259   12.5227   15.7270 O   0  0  0  0  0  0  0  0  0  0  0  0
   13.0814   11.8586   20.9747 O   0  0  0  0  0  0  0  0  0  0  0  0
   13.6344   14.5959   18.8757 O   0  0  0  0  0  0  0  0  0  0  0  0
   13.4333   12.8821   26.3393 F   0  0  0  0  0  0  0  0  0  0  0  0
   13.8202    9.9212   22.7086 F   0  0  0  0  0  0  0  0  0  0  0  0
    7.9327   11.7556   16.6667 S   0  0  2  0  0  0  0  0  0  0  0  0
    8.5242   11.8444   20.7960 H   0  0  0  0  0  0  0  0  0  0  0  0
   10.6325   11.6562   22.0445 H   0  0  0  0  0  0  0  0  0  0  0  0
   12.5616   14.1969   22.1423 H   0  0  0  0  0  0  0  0  0  0  0  0
   12.7305   14.6344   24.5570 H   0  0  0  0  0  0  0  0  0  0  0  0
   10.6988   12.6030   17.2200 H   0  0  0  0  0  0  0  0  0  0  0  0
   13.9321   10.5994   25.2259 H   0  0  0  0  0  0  0  0  0  0  0  0
   15.7654   14.3188   17.3541 H   0  0  0  0  0  0  0  0  0  0  0  0
   12.7824   10.3962   17.5558 H   0  0  0  0  0  0  0  0  0  0  0  0
   15.2191   16.2767   21.2680 H   0  0  0  0  0  0  0  0  0  0  0  0
   14.8335   16.8108   19.6148 H   0  0  0  0  0  0  0  0  0  0  0  0
   13.5218   16.4257   20.7542 H   0  0  0  0  0  0  0  0  0  0  0  0
    8.2145    8.2154   17.6534 H   0  0  0  0  0  0  0  0  0  0  0  0
    7.8136    9.6309   18.6548 H   0  0  0  0  0  0  0  0  0  0  0  0
    6.7539    9.1694   17.3016 H   0  0  0  0  0  0  0  0  0  0  0  0
   15.7428   10.0326   15.4851 H   0  0  0  0  0  0  0  0  0  0  0  0
   14.8868    9.1220   16.7521 H   0  0  0  0  0  0  0  0  0  0  0  0
   13.9892    9.7591   15.3537 H   0  0  0  0  0  0  0  0  0  0  0  0
   14.2273   14.0736   20.7813 H   0  0  0  0  0  0  0  0  0  0  0  0
   15.5483   14.4614   19.6338 H   0  0  0  0  0  0  0  0  0  0  0  0
    8.5775    9.6754   15.7152 H   0  0  0  0  0  0  0  0  0  0  0  0
    9.6243   10.1313   17.0519 H   0  0  0  0  0  0  0  0  0  0  0  0
    7.4269   12.7941   18.7315 H   0  0  0  0  0  0  0  0  0  0  0  0
  1  2  1  0
  1  8  2  0
  1 33  1  0
  2  9  2  0
  2 34  1  0
  3  4  1  0
  3 10  2  0
  3 35  1  0
  4 11  2  0
  4 36  1  0
  5  7  2  0
  5  8  1  0
  5 37  1  0
  6 11  1  0
  6 12  2  0
  6 38  1  0
  7  9  1  0
  7 15  1  0
  8 24  1  0
  9 28  1  0
 10 12  1  0
 10 28  1  0
 11 30  1  0
 12 31  1  0
 13 16  2  0
 13 17  1  0
 13 39  1  0
 14 15  2  0
 14 23  1  0
 14 40  1  0
 15 16  1  0
 16 29  1  0
 17 23  1  0
 17 25  2  0
 18 21  1  0
 18 41  1  1
 18 42  1  0
 18 43  1  0
 19 22  1  0
 19 44  1  1
 19 45  1  0
 19 46  1  0
 20 23  1  0
 20 47  1  6
 20 48  1  0
 20 49  1  0
 21 29  1  0
 21 50  1  1
 21 51  1  0
 22 32  1  0
 22 52  1  6
 22 53  1  0
 32 24  1  1
 24 54  1  0
 26 32  2  0
 27 32  2  0
M  END
