9 flip
     RDKit          3D

 36 39  0  0  1  0  0  0  0  0999 V2000
  -23.1417    7.8388   -5.0836 C   0  0  0  0  0  0  0  0  0  0  0  0
  -23.2198    8.2328   -6.3943 C   0  0  0  0  0  0  0  0  0  0  0  0
  -22.3622    9.2601   -6.8469 C   0  0  0  0  0  0  0  0  0  0  0  0
  -22.1841    9.9045   -8.1029 C   0  0  0  0  0  0  0  0  0  0  0  0
  -21.2436   10.8037   -7.9767 C   0  0  0  0  0  0  0  0  0  0  0  0
  -20.7479   10.8143   -6.6727 N   0  0  0  0  0  0  0  0  0  0  0  0
  -21.4383    9.8605   -5.9547 C   0  0  0  0  0  0  0  0  0  0  0  0
  -21.3655    9.4467   -4.6283 C   0  0  0  0  0  0  0  0  0  0  0  0
  -22.2151    8.4414   -4.1872 C   0  0  0  0  0  0  0  0  0  0  0  0
  -22.1196    8.0239   -2.7586 C   0  0  0  0  0  0  0  0  0  0  0  0
  -23.0628    8.4271   -1.8162 C   0  0  0  0  0  0  0  0  0  0  0  0
  -22.9579    8.0393   -0.4855 C   0  0  0  0  0  0  0  0  0  0  0  0
  -21.9353    7.2347   -0.0379 C   0  0  0  0  0  0  0  0  0  0  0  0
  -20.9541    6.8194   -0.9595 C   0  0  0  0  0  0  0  0  0  0  0  0
  -19.8542    6.0001   -0.5500 C   0  0  0  0  0  0  0  0  0  0  0  0
  -19.7100    5.5988    0.7654 N   0  0  0  0  0  0  0  0  0  0  0  0
  -18.9304    5.6618   -1.5548 C   0  0  0  0  0  0  0  0  0  0  0  0
  -19.1032    6.0899   -2.8153 N   0  0  0  0  0  0  0  0  0  0  0  0
  -20.1042    6.8109   -3.1895 N   0  0  0  0  0  0  0  0  0  0  0  0
  -21.0418    7.2070   -2.3197 C   0  0  0  0  0  0  0  0  0  0  0  0
  -17.7186    4.8655   -1.2867 C   0  0  0  0  0  0  0  0  0  0  0  0
  -16.7457    4.8668   -2.2282 N   0  0  0  0  0  0  0  0  0  0  0  0
  -17.5723    4.2557   -0.2334 O   0  0  0  0  0  0  0  0  0  0  0  0
  -23.9273    7.7597   -7.0592 H   0  0  0  0  0  0  0  0  0  0  0  0
  -22.7867    9.6122   -8.9501 H   0  0  0  0  0  0  0  0  0  0  0  0
  -20.0098   11.4551   -6.4183 H   0  0  0  0  0  0  0  0  0  0  0  0
  -20.6549    9.9065   -3.9574 H   0  0  0  0  0  0  0  0  0  0  0  0
  -23.8922    9.0509   -2.1151 H   0  0  0  0  0  0  0  0  0  0  0  0
  -23.6930    8.3706    0.2330 H   0  0  0  0  0  0  0  0  0  0  0  0
  -21.8980    6.9357    0.9992 H   0  0  0  0  0  0  0  0  0  0  0  0
  -18.9266    5.0206    1.0339 H   0  0  0  0  0  0  0  0  0  0  0  0
  -20.3880    5.8838    1.4576 H   0  0  0  0  0  0  0  0  0  0  0  0
  -15.9004    4.3338   -2.0817 H   0  0  0  0  0  0  0  0  0  0  0  0
  -16.8651    5.4008   -3.0771 H   0  0  0  0  0  0  0  0  0  0  0  0
  -23.7904    7.0580   -4.7149 H   0  0  0  0  0  0  0  0  0  0  0  0
  -20.9578   11.4087   -8.8244 H   0  0  0  0  0  0  0  0  0  0  0  0
  1  2  2  0
  1  9  1  0
  1 35  1  0
  2  3  1  0
  2 24  1  0
  3  4  1  0
  3  7  2  0
  4  5  2  0
  4 25  1  0
  5  6  1  0
  5 36  1  0
  6  7  1  0
  6 26  1  0
  7  8  1  0
  8  9  2  0
  8 27  1  0
  9 10  1  0
 10 11  2  0
 10 20  1  0
 11 12  1  0
 11 28  1  0
 12 13  2  0
 12 29  1  0
 13 14  1  0
 13 30  1  0
 14 15  1  0
 14 20  2  0
 15 16  1  0
 15 17  2  0
 16 31  1  0
 16 32  1  0
 17 18  1  0
 17 21  1  0
 18 19  2  0
 19 20  1  0
 21 22  1  0
 21 23  2  0
 22 33  1  0
 22 34  1  0
M  END
