7
     RDKit          3D

 32 34  0  0  1  0  0  0  0  0999 V2000
  -22.1080    8.0350   -2.7350 C   0  0  0  0  0  0  0  0  0  0  0  0
  -22.9880    8.0250   -0.4820 C   0  0  0  0  0  0  0  0  0  0  0  0
  -19.8600    6.0020   -0.5610 C   0  0  0  0  0  0  0  0  0  0  0  0
  -18.9190    5.6570   -1.5550 C   0  0  0  0  0  0  0  0  0  0  0  0
  -23.0690    8.4210   -1.8010 C   0  0  0  0  0  0  0  0  0  0  0  0
  -21.9540    7.2300   -0.0600 C   0  0  0  0  0  0  0  0  0  0  0  0
  -20.9580    6.8180   -0.9600 C   0  0  0  0  0  0  0  0  0  0  0  0
  -19.7460    5.6110    0.7560 N   0  0  0  0  0  0  0  0  0  0  0  0
  -19.0890    6.0950   -2.8100 N   0  0  0  0  0  0  0  0  0  0  0  0
  -20.0760    6.8260   -3.1700 N   0  0  0  0  0  0  0  0  0  0  0  0
  -21.0340    7.2180   -2.3180 C   0  0  0  0  0  0  0  0  0  0  0  0
  -17.7130    4.8590   -1.2960 C   0  0  0  0  0  0  0  0  0  0  0  0
  -16.7710    4.7780   -2.2590 N   0  0  0  0  0  0  0  0  0  0  0  0
  -17.5250    4.3260   -0.2190 O   0  0  0  0  0  0  0  0  0  0  0  0
  -23.7416    8.3413    0.2240 H   0  0  0  0  0  0  0  0  0  0  0  0
  -23.8982    9.0427   -2.1048 H   0  0  0  0  0  0  0  0  0  0  0  0
  -21.9009    6.9156    0.9719 H   0  0  0  0  0  0  0  0  0  0  0  0
  -20.4489    5.8861    1.4271 H   0  0  0  0  0  0  0  0  0  0  0  0
  -18.9596    5.0495    1.0498 H   0  0  0  0  0  0  0  0  0  0  0  0
  -15.9340    4.2349   -2.1023 H   0  0  0  0  0  0  0  0  0  0  0  0
  -16.9030    5.2605   -3.1364 H   0  0  0  0  0  0  0  0  0  0  0  0
  -22.2206    8.4761   -4.1254 C   0  0  0  0  0  0  0  0  0  0  0  0
  -23.1293    8.0154   -4.9922 C   0  0  0  0  0  0  0  0  0  0  0  0
  -22.9121    8.7028   -6.2711 N   0  0  0  0  0  0  0  0  0  0  0  0
  -21.8835    9.5427   -6.1098 N   0  0  0  0  0  0  0  0  0  0  0  0
  -21.3080    9.5090   -4.7227 C   0  0  0  0  0  0  0  0  0  0  0  0
  -20.5313    9.9565   -4.1202 H   0  0  0  0  0  0  0  0  0  0  0  0
  -23.8432    7.2677   -4.6798 H   0  0  0  0  0  0  0  0  0  0  0  0
  -21.4164   10.4041   -7.2717 C   0  0  1  0  0  0  0  0  0  0  0  0
  -20.5746   11.0191   -6.9534 H   0  0  0  0  0  0  0  0  0  0  0  0
  -21.1061    9.7639   -8.0975 H   0  0  0  0  0  0  0  0  0  0  0  0
  -22.2329   11.0479   -7.5987 H   0  0  0  0  0  0  0  0  0  0  0  0
  1  5  2  0
  1 11  1  0
  1 22  1  0
  2  5  1  0
  2  6  2  0
  2 15  1  0
  3  4  2  0
  3  7  1  0
  3  8  1  0
  4  9  1  0
  4 12  1  0
  5 16  1  0
  6  7  1  0
  6 17  1  0
  7 11  2  0
  8 18  1  0
  8 19  1  0
  9 10  2  0
 10 11  1  0
 12 13  1  0
 12 14  2  0
 13 20  1  0
 13 21  1  0
 22 23  1  0
 22 26  2  0
 23 24  2  0
 23 28  1  0
 24 25  1  0
 25 26  1  0
 25 29  1  0
 26 27  1  0
 29 30  1  1
 29 31  1  0
 29 32  1  0
M  END
