28
     RDKit          3D

 44 46  0  0  1  0  0  0  0  0999 V2000
  -27.8196   10.8206   30.5136 C   0  0  0  0  0  0  0  0  0  0  0  0
  -28.1862   11.4154   31.7424 C   0  0  0  0  0  0  0  0  0  0  0  0
  -27.1695    9.5648   30.5496 C   0  0  0  0  0  0  0  0  0  0  0  0
  -27.9122   10.7854   32.9706 C   0  0  0  0  0  0  0  0  0  0  0  0
  -26.9042    8.9161   31.7716 C   0  0  0  0  0  0  0  0  0  0  0  0
  -27.2855    9.5135   32.9857 C   0  0  0  0  0  0  0  0  0  0  0  0
  -28.1064   11.4981   29.2305 C   0  0  0  0  0  0  0  0  0  0  0  0
  -29.1902   12.3759   29.0563 C   0  0  0  0  0  0  0  0  0  0  0  0
  -30.5843   14.4272   26.2421 C   0  0  2  0  0  0  0  0  0  0  0  0
  -29.6030   15.5711   25.9398 C   0  0  2  0  0  0  0  0  0  0  0  0
  -30.8509   17.9756   23.2021 C   0  0  0  0  0  0  0  0  0  0  0  0
  -30.6168   17.4031   24.4681 C   0  0  0  0  0  0  0  0  0  0  0  0
  -29.3586   15.5986   23.4191 C   0  0  0  0  0  0  0  0  0  0  0  0
  -29.7458   16.4586   27.0261 O   0  0  0  0  0  0  0  0  0  0  0  0
  -29.3233   12.9701   27.8032 C   0  0  0  0  0  0  0  0  0  0  0  0
  -27.4802   11.8703   27.0699 C   0  0  0  0  0  0  0  0  0  0  0  0
  -30.3387   17.3595   22.0442 C   0  0  0  0  0  0  0  0  0  0  0  0
  -29.5929   16.1701   22.1529 C   0  0  0  0  0  0  0  0  0  0  0  0
  -29.8671   16.2110   24.5846 C   0  0  0  0  0  0  0  0  0  0  0  0
  -28.4623   12.7237   26.8119 N   0  0  0  0  0  0  0  0  0  0  0  0
  -27.2608   11.2462   28.2173 N   0  0  0  0  0  0  0  0  0  0  0  0
  -30.3676   13.8720   27.5798 N   0  0  0  0  0  0  0  0  0  0  0  0
  -28.6665   12.3816   31.7538 H   0  0  0  0  0  0  0  0  0  0  0  0
  -26.8739    9.0942   29.6222 H   0  0  0  0  0  0  0  0  0  0  0  0
  -26.4110    7.9548   31.7753 H   0  0  0  0  0  0  0  0  0  0  0  0
  -29.8961   12.5742   29.8471 H   0  0  0  0  0  0  0  0  0  0  0  0
  -30.4984   13.6420   25.4894 H   0  0  0  0  0  0  0  0  0  0  0  0
  -31.6090   14.7954   26.1861 H   0  0  0  0  0  0  0  0  0  0  0  0
  -28.5752   15.2050   25.9391 H   0  0  0  0  0  0  0  0  0  0  0  0
  -31.4283   18.8851   23.1197 H   0  0  0  0  0  0  0  0  0  0  0  0
  -31.0277   17.8781   25.3475 H   0  0  0  0  0  0  0  0  0  0  0  0
  -28.7885   14.6833   23.4956 H   0  0  0  0  0  0  0  0  0  0  0  0
  -29.7412   15.8916   27.7846 H   0  0  0  0  0  0  0  0  0  0  0  0
  -26.7894   11.6664   26.2654 H   0  0  0  0  0  0  0  0  0  0  0  0
  -30.5203   17.7973   21.0732 H   0  0  0  0  0  0  0  0  0  0  0  0
  -29.2017   15.6949   21.2649 H   0  0  0  0  0  0  0  0  0  0  0  0
  -30.5178   14.5548   28.3081 H   0  0  0  0  0  0  0  0  0  0  0  0
  -28.2637   11.3835   34.1324 F   0  0  0  0  0  0  0  0  0  0  0  0
  -27.0079    8.8307   34.2922 C   0  0  0  0  0  0  0  0  0  0  0  0
  -25.9548    8.9923   34.9048 O   0  0  0  0  0  0  0  0  0  0  0  0
  -28.1002    7.9379   34.8015 C   0  0  1  0  0  0  0  0  0  0  0  0
  -28.9341    7.9473   34.0996 H   0  0  0  0  0  0  0  0  0  0  0  0
  -27.7211    6.9208   34.9017 H   0  0  0  0  0  0  0  0  0  0  0  0
  -28.4393    8.2966   35.7733 H   0  0  0  0  0  0  0  0  0  0  0  0
  1  2  1  0
  1  3  2  0
  1  7  1  0
  2  4  2  0
  2 23  1  0
  3  5  1  0
  3 24  1  0
  4  6  1  0
  4 38  1  0
  5  6  2  0
  5 25  1  0
  6 39  1  0
  7  8  1  0
  7 21  2  0
  8 15  2  0
  8 26  1  0
  9 10  1  0
  9 22  1  0
  9 27  1  6
  9 28  1  0
 10 14  1  0
 10 19  1  0
 10 29  1  6
 11 12  2  0
 11 17  1  0
 11 30  1  0
 12 19  1  0
 12 31  1  0
 13 18  1  0
 13 19  2  0
 13 32  1  0
 14 33  1  0
 15 20  1  0
 15 22  1  0
 16 20  2  0
 16 21  1  0
 16 34  1  0
 17 18  2  0
 17 35  1  0
 18 36  1  0
 22 37  1  0
 39 40  2  0
 39 41  1  0
 41 42  1  6
 41 43  1  0
 41 44  1  0
M  END
