6MRG ligand
     RDKit          3D

 45 48  0  0  1  0  0  0  0  0999 V2000
  -27.8219   10.8176   30.5099 C   0  0  0  0  0  0  0  0  0  0  0  0
  -28.1907   11.4136   31.7382 C   0  0  0  0  0  0  0  0  0  0  0  0
  -27.1708    9.5601   30.5413 C   0  0  0  0  0  0  0  0  0  0  0  0
  -27.9088   10.7711   32.9594 C   0  0  0  0  0  0  0  0  0  0  0  0
  -26.9033    8.9060   31.7539 C   0  0  0  0  0  0  0  0  0  0  0  0
  -27.2750    9.4988   32.9606 C   0  0  0  0  0  0  0  0  0  0  0  0
  -28.1088   11.4928   29.2307 C   0  0  0  0  0  0  0  0  0  0  0  0
  -29.1932   12.3767   29.0606 C   0  0  0  0  0  0  0  0  0  0  0  0
  -30.5906   14.4253   26.2379 C   0  0  1  0  0  0  0  0  0  0  0  0
  -29.6098   15.5637   25.9373 C   0  0  2  0  0  0  0  0  0  0  0  0
  -30.8350   17.9923   23.2020 C   0  0  0  0  0  0  0  0  0  0  0  0
  -30.6217   17.4044   24.4673 C   0  0  0  0  0  0  0  0  0  0  0  0
  -29.3605   15.5928   23.4150 C   0  0  0  0  0  0  0  0  0  0  0  0
  -29.7860   16.4659   26.9990 O   0  0  0  0  0  0  0  0  0  0  0  0
  -27.6343   10.8339   35.3043 C   0  0  1  0  0  0  0  0  0  0  0  0
  -29.3314   12.9684   27.7966 C   0  0  0  0  0  0  0  0  0  0  0  0
  -27.4848   11.8604   27.0609 C   0  0  0  0  0  0  0  0  0  0  0  0
  -30.3289   17.3645   22.0392 C   0  0  0  0  0  0  0  0  0  0  0  0
  -29.5870   16.1687   22.1471 C   0  0  0  0  0  0  0  0  0  0  0  0
  -29.8827   16.2023   24.5804 C   0  0  0  0  0  0  0  0  0  0  0  0
  -27.7114    9.2920   35.2594 C   0  0  2  0  0  0  0  0  0  0  0  0
  -28.4718   12.7078   26.7919 N   0  0  0  0  0  0  0  0  0  0  0  0
  -27.2566   11.2401   28.2139 N   0  0  0  0  0  0  0  0  0  0  0  0
  -30.3759   13.8665   27.5746 N   0  0  0  0  0  0  0  0  0  0  0  0
  -27.0088    8.8104   34.1193 O   0  0  0  0  0  0  0  0  0  0  0  0
  -28.2623   11.3833   34.1413 O   0  0  0  0  0  0  0  0  0  0  0  0
  -28.6768   12.3773   31.7502 H   0  0  0  0  0  0  0  0  0  0  0  0
  -26.8702    9.0826   29.6256 H   0  0  0  0  0  0  0  0  0  0  0  0
  -26.4143    7.9477   31.7708 H   0  0  0  0  0  0  0  0  0  0  0  0
  -29.8688   12.6085   29.8667 H   0  0  0  0  0  0  0  0  0  0  0  0
  -31.6080   14.8072   26.1923 H   0  0  0  0  0  0  0  0  0  0  0  0
  -30.5179   13.6568   25.4704 H   0  0  0  0  0  0  0  0  0  0  0  0
  -28.5875   15.1789   25.9632 H   0  0  0  0  0  0  0  0  0  0  0  0
  -31.4291   18.8873   23.1195 H   0  0  0  0  0  0  0  0  0  0  0  0
  -31.0307   17.8724   25.3497 H   0  0  0  0  0  0  0  0  0  0  0  0
  -28.7980   14.6753   23.4908 H   0  0  0  0  0  0  0  0  0  0  0  0
  -29.2880   16.1108   27.7550 H   0  0  0  0  0  0  0  0  0  0  0  0
  -28.1434   11.2076   36.1886 H   0  0  0  0  0  0  0  0  0  0  0  0
  -26.5971   11.1654   35.3558 H   0  0  0  0  0  0  0  0  0  0  0  0
  -26.7884   11.6625   26.2646 H   0  0  0  0  0  0  0  0  0  0  0  0
  -30.5189   17.7992   21.0715 H   0  0  0  0  0  0  0  0  0  0  0  0
  -29.2031   15.6917   21.2617 H   0  0  0  0  0  0  0  0  0  0  0  0
  -28.7473    8.9587   35.2132 H   0  0  0  0  0  0  0  0  0  0  0  0
  -27.2664    8.8657   36.1542 H   0  0  0  0  0  0  0  0  0  0  0  0
  -30.5642   14.4969   28.3466 H   0  0  0  0  0  0  0  0  0  0  0  0
  1  2  1  0
  1  3  2  0
  1  7  1  0
  2  4  2  0
  2 27  1  0
  3  5  1  0
  3 28  1  0
  4  6  1  0
  4 26  1  0
  5  6  2  0
  5 29  1  0
  6 25  1  0
  7  8  1  0
  7 23  2  0
  8 16  2  0
  8 30  1  0
  9 10  1  0
  9 24  1  0
  9 31  1  1
  9 32  1  0
 10 14  1  0
 10 20  1  0
 10 33  1  6
 11 12  2  0
 11 18  1  0
 11 34  1  0
 12 20  1  0
 12 35  1  0
 13 19  1  0
 13 20  2  0
 13 36  1  0
 14 37  1  0
 15 21  1  0
 15 26  1  0
 15 38  1  1
 15 39  1  0
 16 22  1  0
 16 24  1  0
 17 22  2  0
 17 23  1  0
 17 40  1  0
 18 19  2  0
 18 41  1  0
 19 42  1  0
 21 25  1  0
 21 43  1  6
 21 44  1  0
 24 45  1  0
M  END
