4neu
     RDKit          3D

 45 47  0  0  1  0  0  0  0  0999 V2000
  -14.1552  -48.2612  -16.3267 C   0  0  0  0  0  0  0  0  0  0  0  0
  -13.4606  -49.4814  -16.3603 C   0  0  0  0  0  0  0  0  0  0  0  0
  -12.1364  -49.5236  -15.9103 C   0  0  0  0  0  0  0  0  0  0  0  0
  -17.7112  -48.6876  -17.6483 C   0  0  0  0  0  0  0  0  0  0  0  0
  -11.3881  -50.7694  -15.9433 C   0  0  0  0  0  0  0  0  0  0  0  0
  -16.3601  -48.9311  -17.3850 C   0  0  0  0  0  0  0  0  0  0  0  0
  -18.2143  -49.7981  -18.3089 C   0  0  0  0  0  0  0  0  0  0  0  0
  -13.5670  -47.1263  -15.8703 N   0  0  0  0  0  0  0  0  0  0  0  0
  -11.5326  -48.3546  -15.4489 C   0  0  0  0  0  0  0  0  0  0  0  0
  -12.2770  -47.1792  -15.4619 C   0  0  0  0  0  0  0  0  0  0  0  0
  -10.7906  -51.7597  -15.9669 N   0  0  0  0  0  0  0  0  0  0  0  0
  -15.4838  -48.0838  -16.7456 N   0  0  0  0  0  0  0  0  0  0  0  0
  -17.1189  -50.6274  -18.4177 N   0  0  0  0  0  0  0  0  0  0  0  0
  -16.0113  -50.0892  -17.8891 N   0  0  0  0  0  0  0  0  0  0  0  0
  -17.0228  -51.9657  -19.0230 C   0  0  1  0  0  0  0  0  0  0  0  0
  -16.0771  -52.0176  -20.2359 C   0  0  2  0  0  0  0  0  0  0  0  0
  -16.5130  -53.0385  -18.0427 C   0  0  2  0  0  0  0  0  0  0  0  0
  -19.5961  -50.1370  -18.8477 C   0  0  2  0  0  0  0  0  0  0  0  0
  -19.7197  -49.8608  -20.3609 C   0  0  2  0  0  0  0  0  0  0  0  0
  -21.0786  -50.3030  -20.9280 C   0  0  2  0  0  0  0  0  0  0  0  0
  -22.1538  -49.6905  -20.0769 N   0  0  0  0  0  0  0  0  0  0  0  0
  -22.1082  -49.9207  -18.5955 C   0  0  2  0  0  0  0  0  0  0  0  0
  -20.7390  -49.4372  -18.0942 C   0  0  2  0  0  0  0  0  0  0  0  0
  -13.9149  -50.3865  -16.7232 H   0  0  0  0  0  0  0  0  0  0  0  0
  -18.2632  -47.7995  -17.3783 H   0  0  0  0  0  0  0  0  0  0  0  0
  -10.5020  -48.3385  -15.1214 H   0  0  0  0  0  0  0  0  0  0  0  0
  -11.8225  -46.2516  -15.1702 H   0  0  0  0  0  0  0  0  0  0  0  0
  -15.8136  -47.1549  -16.5261 H   0  0  0  0  0  0  0  0  0  0  0  0
  -18.0267  -52.2246  -19.3525 H   0  0  0  0  0  0  0  0  0  0  0  0
  -15.6305  -51.0520  -20.4732 H   0  0  0  0  0  0  0  0  0  0  0  0
  -16.6382  -52.3390  -21.1117 H   0  0  0  0  0  0  0  0  0  0  0  0
  -17.3203  -53.5320  -17.5080 H   0  0  0  0  0  0  0  0  0  0  0  0
  -15.8486  -52.6049  -17.2967 H   0  0  0  0  0  0  0  0  0  0  0  0
  -19.7665  -51.2028  -18.6848 H   0  0  0  0  0  0  0  0  0  0  0  0
  -18.9297  -50.3852  -20.8964 H   0  0  0  0  0  0  0  0  0  0  0  0
  -19.5672  -48.7990  -20.5631 H   0  0  0  0  0  0  0  0  0  0  0  0
  -21.2176  -51.3837  -20.8553 H   0  0  0  0  0  0  0  0  0  0  0  0
  -21.1962  -49.9891  -21.9657 H   0  0  0  0  0  0  0  0  0  0  0  0
  -22.2512  -50.9934  -18.4469 H   0  0  0  0  0  0  0  0  0  0  0  0
  -22.9128  -49.3736  -18.1042 H   0  0  0  0  0  0  0  0  0  0  0  0
  -20.6642  -48.3547  -18.2116 H   0  0  0  0  0  0  0  0  0  0  0  0
  -20.6602  -49.6259  -17.0234 H   0  0  0  0  0  0  0  0  0  0  0  0
  -15.2833  -52.7378  -20.0378 H   0  0  0  0  0  0  0  0  0  0  0  0
  -15.9595  -53.7895  -18.6064 H   0  0  0  0  0  0  0  0  0  0  0  0
  -23.0676  -49.9493  -20.4258 H   0  0  0  0  0  0  0  0  0  0  0  0
  1  2  1  0
  1  8  2  0
  1 12  1  0
  2  3  2  0
  2 24  1  0
  3  5  1  0
  3  9  1  0
  4  6  1  0
  4  7  2  0
  4 25  1  0
  5 11  3  0
  6 12  1  0
  6 14  2  0
  7 13  1  0
  7 18  1  0
  8 10  1  0
  9 10  2  0
  9 26  1  0
 10 27  1  0
 12 28  1  0
 13 14  1  0
 13 15  1  0
 15 16  1  0
 15 17  1  0
 15 29  1  6
 16 30  1  6
 16 31  1  0
 16 43  1  0
 17 32  1  1
 17 33  1  0
 17 44  1  0
 18 19  1  0
 18 23  1  0
 18 34  1  6
 19 20  1  0
 19 35  1  6
 19 36  1  0
 20 21  1  0
 20 37  1  6
 20 38  1  0
 21 22  1  0
 21 45  1  0
 22 23  1  0
 22 39  1  6
 22 40  1  0
 23 41  1  1
 23 42  1  0
M  END
