18
     RDKit          3D

 45 48  0  0  1  0  0  0  0  0999 V2000
  -14.1558  -48.2618  -16.3270 C   0  0  0  0  0  0  0  0  0  0  0  0
  -13.4606  -49.4818  -16.3608 C   0  0  0  0  0  0  0  0  0  0  0  0
  -12.1363  -49.5233  -15.9111 C   0  0  0  0  0  0  0  0  0  0  0  0
  -17.7119  -48.6898  -17.6478 C   0  0  0  0  0  0  0  0  0  0  0  0
  -11.3875  -50.7688  -15.9442 C   0  0  0  0  0  0  0  0  0  0  0  0
  -16.3606  -48.9327  -17.3847 C   0  0  0  0  0  0  0  0  0  0  0  0
  -18.2150  -49.8001  -18.3082 C   0  0  0  0  0  0  0  0  0  0  0  0
  -13.5679  -47.1267  -15.8708 N   0  0  0  0  0  0  0  0  0  0  0  0
  -11.5329  -48.3541  -15.4499 C   0  0  0  0  0  0  0  0  0  0  0  0
  -12.2778  -47.1790  -15.4627 C   0  0  0  0  0  0  0  0  0  0  0  0
  -10.7896  -51.7589  -15.9679 N   0  0  0  0  0  0  0  0  0  0  0  0
  -15.4846  -48.0850  -16.7456 N   0  0  0  0  0  0  0  0  0  0  0  0
  -17.1189  -50.6293  -18.4173 N   0  0  0  0  0  0  0  0  0  0  0  0
  -16.0115  -50.0907  -17.8889 N   0  0  0  0  0  0  0  0  0  0  0  0
  -17.0224  -51.9676  -19.0227 C   0  0  1  0  0  0  0  0  0  0  0  0
  -16.0769  -52.0190  -20.2358 C   0  0  2  0  0  0  0  0  0  0  0  0
  -15.0268  -53.0811  -19.9134 C   0  0  2  0  0  0  0  0  0  0  0  0
  -15.7080  -54.0040  -18.9071 C   0  0  2  0  0  0  0  0  0  0  0  0
  -16.5119  -53.0401  -18.0424 C   0  0  2  0  0  0  0  0  0  0  0  0
  -13.9147  -50.3870  -16.7236 H   0  0  0  0  0  0  0  0  0  0  0  0
  -18.2642  -47.8019  -17.3776 H   0  0  0  0  0  0  0  0  0  0  0  0
  -10.5022  -48.3376  -15.1226 H   0  0  0  0  0  0  0  0  0  0  0  0
  -11.8236  -46.2512  -15.1710 H   0  0  0  0  0  0  0  0  0  0  0  0
  -15.8146  -47.1562  -16.5260 H   0  0  0  0  0  0  0  0  0  0  0  0
  -18.0262  -52.2269  -19.3519 H   0  0  0  0  0  0  0  0  0  0  0  0
  -15.6308  -51.0533  -20.4732 H   0  0  0  0  0  0  0  0  0  0  0  0
  -16.6382  -52.3407  -21.1114 H   0  0  0  0  0  0  0  0  0  0  0  0
  -14.1464  -52.6171  -19.4656 H   0  0  0  0  0  0  0  0  0  0  0  0
  -14.7118  -53.6113  -20.8075 H   0  0  0  0  0  0  0  0  0  0  0  0
  -15.0014  -54.5986  -18.3278 H   0  0  0  0  0  0  0  0  0  0  0  0
  -16.3750  -54.6937  -19.4271 H   0  0  0  0  0  0  0  0  0  0  0  0
  -17.3189  -53.5340  -17.5075 H   0  0  0  0  0  0  0  0  0  0  0  0
  -15.8475  -52.6062  -17.2966 H   0  0  0  0  0  0  0  0  0  0  0  0
  -19.7664  -51.2059  -18.6838 H   0  0  0  0  0  0  0  0  0  0  0  0
  -19.5935  -50.1234  -18.8493 C   0  0  2  0  0  0  0  0  0  0  0  0
  -19.6774  -49.7368  -20.3320 C   0  0  2  0  0  0  0  0  0  0  0  0
  -21.3289  -48.4246  -19.2166 C   0  0  2  0  0  0  0  0  0  0  0  0
  -20.6478  -49.2647  -18.1275 C   0  0  1  0  0  0  0  0  0  0  0  0
  -19.4349  -50.5837  -21.0183 H   0  0  0  0  0  0  0  0  0  0  0  0
  -18.9652  -48.9029  -20.5460 H   0  0  0  0  0  0  0  0  0  0  0  0
  -20.8123  -47.4385  -19.3113 H   0  0  0  0  0  0  0  0  0  0  0  0
  -21.4012  -49.9237  -17.6312 H   0  0  0  0  0  0  0  0  0  0  0  0
  -20.1966  -48.6175  -17.3372 H   0  0  0  0  0  0  0  0  0  0  0  0
  -21.0676  -49.2201  -20.4463 O   0  0  0  0  0  0  0  0  0  0  0  0
  -22.3962  -48.3067  -19.0293 H   0  0  0  0  0  0  0  0  0  0  0  0
  1  2  1  0
  1  8  2  0
  1 12  1  0
  2  3  2  0
  2 20  1  0
  3  5  1  0
  3  9  1  0
  4  6  1  0
  4  7  2  0
  4 21  1  0
  5 11  3  0
  6 12  1  0
  6 14  2  0
  7 13  1  0
  7 35  1  0
  8 10  1  0
  9 10  2  0
  9 22  1  0
 10 23  1  0
 12 24  1  0
 13 14  1  0
 13 15  1  0
 15 16  1  0
 15 19  1  0
 15 25  1  6
 16 17  1  0
 16 26  1  6
 16 27  1  0
 17 18  1  0
 17 28  1  1
 17 29  1  0
 18 19  1  0
 18 30  1  1
 18 31  1  0
 19 32  1  1
 19 33  1  0
 35 34  1  6
 35 36  1  0
 35 38  1  0
 36 39  1  6
 36 40  1  0
 36 44  1  0
 37 38  1  0
 37 41  1  6
 37 44  1  0
 37 45  1  0
 38 42  1  1
 38 43  1  0
M  END
