3
     RDKit          3D

 25 26  0  0  1  0  0  0  0  0999 V2000
    1.6726    8.2086   31.2966 C   0  0  0  0  0  0  0  0  0  0  0  0
    0.4949    7.5935   31.0676 N   0  0  0  0  0  0  0  0  0  0  0  0
   -0.3030    8.0929   30.1027 C   0  0  0  0  0  0  0  0  0  0  0  0
    0.0409    9.2141   29.3244 C   0  0  0  0  0  0  0  0  0  0  0  0
    1.2739    9.8501   29.5673 C   0  0  0  0  0  0  0  0  0  0  0  0
    2.1233    9.3317   30.5751 C   0  0  0  0  0  0  0  0  0  0  0  0
    3.3620    9.8358   30.8979 O   0  0  0  0  0  0  0  0  0  0  0  0
    3.9041   10.8754   30.0986 C   0  0  2  0  0  0  0  0  0  0  0  0
    5.3209   11.1694   30.5419 C   0  0  0  0  0  0  0  0  0  0  0  0
    6.3835   10.3900   30.0407 C   0  0  0  0  0  0  0  0  0  0  0  0
    7.6942   10.6079   30.5022 C   0  0  0  0  0  0  0  0  0  0  0  0
    7.9508   11.6038   31.4631 C   0  0  0  0  0  0  0  0  0  0  0  0
    6.8934   12.3917   31.9587 C   0  0  0  0  0  0  0  0  0  0  0  0
    5.5781   12.1732   31.5002 C   0  0  0  0  0  0  0  0  0  0  0  0
   -1.2401    7.5795   29.9427 H   0  0  0  0  0  0  0  0  0  0  0  0
   -0.6312    9.5816   28.5627 H   0  0  0  0  0  0  0  0  0  0  0  0
    1.5445   10.7129   28.9775 H   0  0  0  0  0  0  0  0  0  0  0  0
    3.2979   11.7781   30.1873 H   0  0  0  0  0  0  0  0  0  0  0  0
    3.9174   10.5843   29.0456 H   0  0  0  0  0  0  0  0  0  0  0  0
    6.1927    9.6043   29.3238 H   0  0  0  0  0  0  0  0  0  0  0  0
    8.4969    9.9921   30.1274 H   0  0  0  0  0  0  0  0  0  0  0  0
    8.9566   11.7620   31.8212 H   0  0  0  0  0  0  0  0  0  0  0  0
    7.0890   13.1572   32.6951 H   0  0  0  0  0  0  0  0  0  0  0  0
    4.7648   12.7610   31.9034 H   0  0  0  0  0  0  0  0  0  0  0  0
    2.2863    7.7774   32.0738 H   0  0  0  0  0  0  0  0  0  0  0  0
  1  2  1  0
  1  6  2  0
  1 25  1  0
  2  3  2  0
  3  4  1  0
  3 15  1  0
  4  5  2  0
  4 16  1  0
  5  6  1  0
  5 17  1  0
  6  7  1  0
  7  8  1  0
  8  9  1  0
  8 18  1  6
  8 19  1  0
  9 10  1  0
  9 14  2  0
 10 11  2  0
 10 20  1  0
 11 12  1  0
 11 21  1  0
 12 13  2  0
 12 22  1  0
 13 14  1  0
 13 23  1  0
 14 24  1  0
M  END
