43 flipped
     RDKit          3D

 48 52  0  0  1  0  0  0  0  0999 V2000
   -6.3694   12.3608  -12.0100 C   0  0  0  0  0  0  0  0  0  0  0  0
   -6.5170   11.8053  -10.7333 C   0  0  0  0  0  0  0  0  0  0  0  0
   -7.7298   10.5799  -13.0278 C   0  0  0  0  0  0  0  0  0  0  0  0
   -6.9915   11.7687  -13.1228 C   0  0  0  0  0  0  0  0  0  0  0  0
   -7.8213   10.0100  -11.7550 C   0  0  0  0  0  0  0  0  0  0  0  0
   -7.2397   10.6196  -10.6003 C   0  0  0  0  0  0  0  0  0  0  0  0
   -7.6092    9.7471   -9.5124 C   0  0  0  0  0  0  0  0  0  0  0  0
   -8.2773    8.7308   -9.9855 N   0  0  0  0  0  0  0  0  0  0  0  0
   -8.4143    8.8607  -11.2979 N   0  0  0  0  0  0  0  0  0  0  0  0
   -7.3268    9.8907   -8.0257 C   0  0  1  0  0  0  0  0  0  0  0  0
   -4.3565   13.7183  -11.5055 N   0  0  0  0  0  0  0  0  0  0  0  0
   -5.5483   13.6363  -12.1897 C   0  0  0  0  0  0  0  0  0  0  0  0
   -5.9477   14.5322  -12.9368 O   0  0  0  0  0  0  0  0  0  0  0  0
   -5.9513   10.4999   -7.7281 C   0  0  0  0  0  0  0  0  0  0  0  0
   -4.7996    9.7646   -8.0138 C   0  0  0  0  0  0  0  0  0  0  0  0
   -3.5588   10.3310   -7.7115 C   0  0  0  0  0  0  0  0  0  0  0  0
   -3.4952   11.6400   -7.1374 C   0  0  0  0  0  0  0  0  0  0  0  0
   -4.6464   12.3860   -6.8601 C   0  0  0  0  0  0  0  0  0  0  0  0
   -5.8731   11.7794   -7.1670 C   0  0  0  0  0  0  0  0  0  0  0  0
   -2.1788    9.9347   -7.8248 C   0  0  0  0  0  0  0  0  0  0  0  0
   -1.3953   10.8756   -7.3779 N   0  0  0  0  0  0  0  0  0  0  0  0
   -2.1480   11.8919   -6.9767 N   0  0  0  0  0  0  0  0  0  0  0  0
   -1.4983   13.0871   -6.4495 C   0  0  2  0  0  0  0  0  0  0  0  0
   -3.7111   12.5665  -10.8449 C   0  0  1  0  0  0  0  0  0  0  0  0
   -2.2188   12.9372  -10.9792 C   0  0  2  0  0  0  0  0  0  0  0  0
   -2.1852   14.4611  -10.9536 C   0  0  1  0  0  0  0  0  0  0  0  0
   -3.5089   14.9092  -11.5986 C   0  0  1  0  0  0  0  0  0  0  0  0
   -1.7019   12.4742  -12.1199 F   0  0  0  0  0  0  0  0  0  0  0  0
   -1.4726   12.4435   -9.9943 F   0  0  0  0  0  0  0  0  0  0  0  0
   -6.0887   12.2893   -9.8700 H   0  0  0  0  0  0  0  0  0  0  0  0
   -8.1938   10.1290  -13.8927 H   0  0  0  0  0  0  0  0  0  0  0  0
   -6.8742   12.2301  -14.0952 H   0  0  0  0  0  0  0  0  0  0  0  0
   -8.9091    8.1541  -11.8345 H   0  0  0  0  0  0  0  0  0  0  0  0
   -8.0898   10.5513   -7.6049 H   0  0  0  0  0  0  0  0  0  0  0  0
   -7.4625    8.9415   -7.5064 H   0  0  0  0  0  0  0  0  0  0  0  0
   -4.8667    8.7831   -8.4483 H   0  0  0  0  0  0  0  0  0  0  0  0
   -4.5974   13.3803   -6.4334 H   0  0  0  0  0  0  0  0  0  0  0  0
   -6.7892   12.3140   -6.9663 H   0  0  0  0  0  0  0  0  0  0  0  0
   -1.7809    9.0117   -8.2124 H   0  0  0  0  0  0  0  0  0  0  0  0
   -0.4110   12.9705   -6.4447 H   0  0  0  0  0  0  0  0  0  0  0  0
   -1.8177   13.2727   -5.4327 H   0  0  0  0  0  0  0  0  0  0  0  0
   -1.7627   13.9462   -7.0613 H   0  0  0  0  0  0  0  0  0  0  0  0
   -3.9410   12.5478   -9.7815 H   0  0  0  0  0  0  0  0  0  0  0  0
   -3.8926   11.6034  -11.3224 H   0  0  0  0  0  0  0  0  0  0  0  0
   -2.1199   14.8153   -9.9199 H   0  0  0  0  0  0  0  0  0  0  0  0
   -1.3204   14.8723  -11.4772 H   0  0  0  0  0  0  0  0  0  0  0  0
   -3.3224   15.2093  -12.6316 H   0  0  0  0  0  0  0  0  0  0  0  0
   -3.9605   15.7276  -11.0393 H   0  0  0  0  0  0  0  0  0  0  0  0
  1  2  2  0
  1  4  1  0
  1 12  1  0
  2  6  1  0
  2 30  1  0
  3  4  2  0
  3  5  1  0
  3 31  1  0
  4 32  1  0
  5  6  2  0
  5  9  1  0
  6  7  1  0
  7  8  2  0
  7 10  1  0
  8  9  1  0
  9 33  1  0
 10 14  1  0
 10 34  1  1
 10 35  1  0
 11 12  1  0
 11 24  1  0
 11 27  1  0
 12 13  2  0
 14 15  2  0
 14 19  1  0
 15 16  1  0
 15 36  1  0
 16 17  2  0
 16 20  1  0
 17 18  1  0
 17 22  1  0
 18 19  2  0
 18 37  1  0
 19 38  1  0
 20 21  2  0
 20 39  1  0
 21 22  1  0
 22 23  1  0
 23 40  1  1
 23 41  1  0
 23 42  1  0
 24 25  1  0
 24 43  1  1
 24 44  1  0
 25 26  1  0
 25 28  1  6
 25 29  1  0
 26 27  1  0
 26 45  1  1
 26 46  1  0
 27 47  1  6
 27 48  1  0
M  END
