20814_6
     RDKit          3D

 46 49  0  0  1  0  0  0  0  0999 V2000
    7.3708    6.6695   19.4306 F   0  0  0  0  0  0  0  0  0  0  0  0
    7.1319    5.3608   19.6928 C   0  0  0  0  0  0  0  0  0  0  0  0
    7.7632    4.3750   18.9177 C   0  0  0  0  0  0  0  0  0  0  0  0
    7.5434    3.0102   19.1828 C   0  0  0  0  0  0  0  0  0  0  0  0
    8.1204    2.0271   18.3375 N   0  0  0  0  0  0  0  0  0  0  0  0
    9.2306    1.3351   18.8350 C   0  0  0  0  0  0  0  0  0  0  0  0
    9.8603    0.3869   18.1264 C   0  0  0  0  0  0  0  0  0  0  0  0
    9.3350    0.0563   16.8243 C   0  0  0  0  0  0  0  0  0  0  0  0
    8.2685    0.7180   16.3318 C   0  0  0  0  0  0  0  0  0  0  0  0
    7.5983    1.7710   17.0988 C   0  0  0  0  0  0  0  0  0  0  0  0
    6.6207    2.3769   16.6622 O   0  0  0  0  0  0  0  0  0  0  0  0
    6.7491    2.6329   20.2861 C   0  0  0  0  0  0  0  0  0  0  0  0
    6.1102    3.6168   21.0654 C   0  0  0  0  0  0  0  0  0  0  0  0
    6.2597    4.9820   20.7366 C   0  0  0  0  0  0  0  0  0  0  0  0
    5.5440    5.9583   21.4674 N   0  0  0  0  0  0  0  0  0  0  0  0
    4.7277    6.8754   20.9118 C   0  0  0  0  0  0  0  0  0  0  0  0
    4.4591    6.8840   19.7115 O   0  0  0  0  0  0  0  0  0  0  0  0
    4.0757    7.9456   21.8157 C   0  0  1  0  0  0  0  0  0  0  0  0
    4.4287    7.9643   23.2991 C   0  0  0  0  0  0  0  0  0  0  0  0
    3.5235    7.8255   24.3495 C   0  0  0  0  0  0  0  0  0  0  0  0
    6.9595    8.2566   25.7434 N   0  0  0  0  0  0  0  0  0  0  0  0
    8.1461    8.7928   25.3980 C   0  0  0  0  0  0  0  0  0  0  0  0
    8.3359    9.4859   24.3994 O   0  0  0  0  0  0  0  0  0  0  0  0
    9.2533    8.4550   26.3084 C   0  0  0  0  0  0  0  0  0  0  0  0
    9.2686    7.8655   27.5491 C   0  0  0  0  0  0  0  0  0  0  0  0
   10.5844    7.5828   28.0116 C   0  0  0  0  0  0  0  0  0  0  0  0
   10.8740    8.7964   25.7438 S   0  0  0  0  0  0  0  0  0  0  0  0
   11.5428    7.9868   27.1254 C   0  0  0  0  0  0  0  0  0  0  0  0
   13.2428    7.7771   27.2274 Cl  0  0  0  0  0  0  0  0  0  0  0  0
    4.3364    7.9595   25.8722 S   0  0  0  0  0  0  0  0  0  0  0  0
    5.6858    8.1434   23.6788 N   0  0  0  0  0  0  0  0  0  0  0  0
    5.8066    8.1865   24.9901 C   0  0  0  0  0  0  0  0  0  0  0  0
    8.4064    4.6717   18.1087 H   0  0  0  0  0  0  0  0  0  0  0  0
    9.5299    1.6301   19.8219 H   0  0  0  0  0  0  0  0  0  0  0  0
   10.7195   -0.1303   18.5280 H   0  0  0  0  0  0  0  0  0  0  0  0
    9.7974   -0.7274   16.2451 H   0  0  0  0  0  0  0  0  0  0  0  0
    7.8886    0.4590   15.3547 H   0  0  0  0  0  0  0  0  0  0  0  0
    6.6072    1.5884   20.5144 H   0  0  0  0  0  0  0  0  0  0  0  0
    5.4794    3.3228   21.8912 H   0  0  0  0  0  0  0  0  0  0  0  0
    5.6487    5.9483   22.4728 H   0  0  0  0  0  0  0  0  0  0  0  0
    4.2682    8.9249   21.3630 H   0  0  0  0  0  0  0  0  0  0  0  0
    2.9938    7.8001   21.7877 H   0  0  0  0  0  0  0  0  0  0  0  0
    6.8821    7.8317   26.6450 H   0  0  0  0  0  0  0  0  0  0  0  0
    8.3957    7.5879   28.1201 H   0  0  0  0  0  0  0  0  0  0  0  0
   10.7736    7.0840   28.9467 H   0  0  0  0  0  0  0  0  0  0  0  0
    2.4586    7.6674   24.3009 H   0  0  0  0  0  0  0  0  0  0  0  0
  1  2  1  0
  2  3  1  0
  2 14  2  0
  3  4  2  0
  3 33  1  0
  4  5  1  0
  4 12  1  0
  5  6  1  0
  5 10  1  0
  6  7  2  0
  6 34  1  0
  7  8  1  0
  7 35  1  0
  8  9  2  0
  8 36  1  0
  9 10  1  0
  9 37  1  0
 10 11  2  0
 12 13  2  0
 12 38  1  0
 13 14  1  0
 13 39  1  0
 14 15  1  0
 15 16  1  0
 15 40  1  0
 16 17  2  0
 16 18  1  0
 18 19  1  0
 18 41  1  6
 18 42  1  0
 19 20  2  0
 19 31  1  0
 20 30  1  0
 20 46  1  0
 21 22  1  0
 21 32  1  0
 21 43  1  0
 22 23  2  0
 22 24  1  0
 24 25  2  0
 24 27  1  0
 25 26  1  0
 25 44  1  0
 26 28  2  0
 26 45  1  0
 27 28  1  0
 28 29  1  0
 30 32  1  0
 31 32  2  0
M  END
