21331
     RDKit          3D

 68 72  0  0  1  0  0  0  0  0999 V2000
   -0.7481    8.1529   18.6802 C   0  0  1  0  0  0  0  0  0  0  0  0
    0.6028    8.1891   19.2471 N   0  0  0  0  0  0  0  0  0  0  0  0
    1.6849    7.8962   18.3037 C   0  0  1  0  0  0  0  0  0  0  0  0
    0.7988    8.5321   20.5436 C   0  0  0  0  0  0  0  0  0  0  0  0
   -0.1347    8.8753   21.2714 O   0  0  0  0  0  0  0  0  0  0  0  0
    2.2182    8.4824   21.1509 C   0  0  1  0  0  0  0  0  0  0  0  0
    2.8113    9.9111   21.2532 C   0  0  1  0  0  0  0  0  0  0  0  0
    4.2181    9.9048   21.8815 C   0  0  1  0  0  0  0  0  0  0  0  0
    4.2378    9.1761   23.2440 C   0  0  2  0  0  0  0  0  0  0  0  0
    5.6004    9.1552   23.7698 N   0  0  0  0  0  0  0  0  0  0  0  0
    5.9662    9.2970   25.0526 C   0  0  0  0  0  0  0  0  0  0  0  0
    5.1685    9.4677   25.9730 O   0  0  0  0  0  0  0  0  0  0  0  0
    7.4435    9.2035   25.3244 C   0  0  0  0  0  0  0  0  0  0  0  0
    8.2952    9.7250   24.4008 C   0  0  0  0  0  0  0  0  0  0  0  0
    9.6225    9.5826   24.6088 C   0  0  0  0  0  0  0  0  0  0  0  0
   10.1832    8.9222   25.7215 C   0  0  0  0  0  0  0  0  0  0  0  0
   11.5677    8.7116   25.8901 C   0  0  0  0  0  0  0  0  0  0  0  0
   12.0575    8.0592   27.0140 C   0  0  0  0  0  0  0  0  0  0  0  0
   13.7541    7.7991   27.1884 Cl  0  0  0  0  0  0  0  0  0  0  0  0
   11.1821    7.6164   27.9978 C   0  0  0  0  0  0  0  0  0  0  0  0
    9.8111    7.7770   27.8421 C   0  0  0  0  0  0  0  0  0  0  0  0
    9.2842    8.4245   26.7061 C   0  0  0  0  0  0  0  0  0  0  0  0
    7.9004    8.5897   26.4894 C   0  0  0  0  0  0  0  0  0  0  0  0
    3.6260    7.7457   23.1737 C   0  0  2  0  0  0  0  0  0  0  0  0
    4.4768    6.8192   22.4094 N   0  0  0  0  0  0  0  0  0  0  0  0
    4.4837    5.4751   22.5114 C   0  0  0  0  0  0  0  0  0  0  0  0
    3.7511    4.8664   23.2933 O   0  0  0  0  0  0  0  0  0  0  0  0
    5.4355    4.7847   21.6158 C   0  0  0  0  0  0  0  0  0  0  0  0
    6.2593    5.3788   20.7571 N   0  0  0  0  0  0  0  0  0  0  0  0
    6.9494    4.4673   20.1166 C   0  0  0  0  0  0  0  0  0  0  0  0
    7.9702    4.5720   19.0436 C   0  0  1  0  0  0  0  0  0  0  0  0
    8.0429    3.1732   18.4636 N   0  0  1  0  0  0  0  0  0  0  0  0
    9.3528    2.8311   17.8713 C   0  0  1  0  0  0  0  0  0  0  0  0
    7.5186    2.2508   19.5412 C   0  0  1  0  0  0  0  0  0  0  0  0
    6.7335    3.1618   20.3944 C   0  0  0  0  0  0  0  0  0  0  0  0
    5.5320    3.0171   21.6210 S   0  0  0  0  0  0  0  0  0  0  0  0
    2.2111    7.8056   22.5510 C   0  0  1  0  0  0  0  0  0  0  0  0
   -0.7961    7.5549   17.7696 H   0  0  0  0  0  0  0  0  0  0  0  0
   -1.4652    7.7160   19.3772 H   0  0  0  0  0  0  0  0  0  0  0  0
   -1.0815    9.1627   18.4384 H   0  0  0  0  0  0  0  0  0  0  0  0
    1.3405    7.8933   17.2690 H   0  0  0  0  0  0  0  0  0  0  0  0
    2.4759    8.6448   18.3640 H   0  0  0  0  0  0  0  0  0  0  0  0
    2.1159    6.9158   18.5099 H   0  0  0  0  0  0  0  0  0  0  0  0
    2.8741    7.8837   20.5216 H   0  0  0  0  0  0  0  0  0  0  0  0
    2.8632   10.3685   20.2643 H   0  0  0  0  0  0  0  0  0  0  0  0
    2.1562   10.5471   21.8511 H   0  0  0  0  0  0  0  0  0  0  0  0
    4.9196    9.4286   21.1952 H   0  0  0  0  0  0  0  0  0  0  0  0
    4.5615   10.9327   22.0033 H   0  0  0  0  0  0  0  0  0  0  0  0
    3.5999    9.7299   23.9360 H   0  0  0  0  0  0  0  0  0  0  0  0
    6.3402    8.9972   23.1015 H   0  0  0  0  0  0  0  0  0  0  0  0
    7.9180   10.2420   23.5303 H   0  0  0  0  0  0  0  0  0  0  0  0
   10.3210    9.9945   23.8950 H   0  0  0  0  0  0  0  0  0  0  0  0
   12.2665    9.0580   25.1424 H   0  0  0  0  0  0  0  0  0  0  0  0
   11.5659    7.1444   28.8903 H   0  0  0  0  0  0  0  0  0  0  0  0
    9.1405    7.4006   28.6010 H   0  0  0  0  0  0  0  0  0  0  0  0
    7.1926    8.2359   27.2258 H   0  0  0  0  0  0  0  0  0  0  0  0
    3.5593    7.3645   24.1947 H   0  0  0  0  0  0  0  0  0  0  0  0
    5.1140    7.2287   21.7410 H   0  0  0  0  0  0  0  0  0  0  0  0
    7.6873    5.2803   18.2646 H   0  0  0  0  0  0  0  0  0  0  0  0
    8.9361    4.8681   19.4554 H   0  0  0  0  0  0  0  0  0  0  0  0
    9.3161    1.8448   17.4075 H   0  0  0  0  0  0  0  0  0  0  0  0
    9.6252    3.5552   17.1027 H   0  0  0  0  0  0  0  0  0  0  0  0
   10.1363    2.8246   18.6303 H   0  0  0  0  0  0  0  0  0  0  0  0
    6.8980    1.4609   19.1174 H   0  0  0  0  0  0  0  0  0  0  0  0
    8.3252    1.8006   20.1217 H   0  0  0  0  0  0  0  0  0  0  0  0
    1.5597    8.3603   23.2283 H   0  0  0  0  0  0  0  0  0  0  0  0
    1.7863    6.8028   22.4828 H   0  0  0  0  0  0  0  0  0  0  0  0
    7.3686    3.1606   17.7115 H   0  0  0  0  0  0  0  0  0  0  0  0
  1  2  1  0
  1 38  1  6
  1 39  1  0
  1 40  1  0
  2  3  1  0
  2  4  1  0
  3 41  1  6
  3 42  1  0
  3 43  1  0
  4  5  2  0
  4  6  1  0
  6 37  1  0
  6  7  1  0
  6 44  1  6
  7  8  1  0
  7 45  1  6
  7 46  1  0
  8  9  1  0
  8 47  1  6
  8 48  1  0
  9 10  1  0
  9 24  1  0
  9 49  1  1
 10 11  1  0
 10 50  1  0
 11 12  2  0
 11 13  1  0
 13 23  1  0
 13 14  2  0
 14 15  1  0
 14 51  1  0
 15 16  2  0
 15 52  1  0
 16 22  1  0
 16 17  1  0
 17 18  2  0
 17 53  1  0
 18 19  1  0
 18 20  1  0
 20 21  2  0
 20 54  1  0
 21 22  1  0
 21 55  1  0
 22 23  2  0
 23 56  1  0
 24 25  1  0
 24 37  1  0
 24 57  1  1
 25 26  1  0
 25 58  1  0
 26 27  2  0
 26 28  1  0
 28 36  1  0
 28 29  2  0
 29 30  1  0
 30 35  2  0
 30 31  1  0
 31 32  1  0
 31 59  1  6
 31 60  1  0
 32 33  1  0
 32 34  1  0
 32 68  1  6
 33 61  1  6
 33 62  1  0
 33 63  1  0
 34 35  1  0
 34 64  1  6
 34 65  1  0
 35 36  1  0
 37 66  1  1
 37 67  1  0
M  CHG  1  32   1
M  END
