23703_cys
     RDKit          3D

 45 47  0  0  1  0  0  0  0  0999 V2000
    7.3147   10.2391   19.8565 N   0  0  0  0  0  0  0  0  0  0  0  0
    5.9972   10.1346   20.0268 C   0  0  0  0  0  0  0  0  0  0  0  0
    5.3717   10.9158   20.7393 O   0  0  0  0  0  0  0  0  0  0  0  0
    5.4839    9.1043   19.3315 N   0  0  0  0  0  0  0  0  0  0  0  0
    4.1979    8.6584   19.2665 C   0  0  0  0  0  0  0  0  0  0  0  0
    2.9238    9.3551   20.2302 S   0  0  0  0  0  0  0  0  0  0  0  0
    1.7389    8.2746   19.5801 C   0  0  0  0  0  0  0  0  0  0  0  0
    0.3506    8.3443   20.0367 C   0  0  0  0  0  0  0  0  0  0  0  0
   -0.1015    9.3812   20.8748 C   0  0  0  0  0  0  0  0  0  0  0  0
   -1.4296    9.4545   21.2890 C   0  0  0  0  0  0  0  0  0  0  0  0
   -2.3349    8.4786   20.8818 C   0  0  0  0  0  0  0  0  0  0  0  0
   -1.9058    7.4338   20.0662 C   0  0  0  0  0  0  0  0  0  0  0  0
   -0.5763    7.3698   19.6469 C   0  0  0  0  0  0  0  0  0  0  0  0
    2.3418    7.4328   18.6383 C   0  0  0  0  0  0  0  0  0  0  0  0
    3.7315    7.6167   18.4481 C   0  0  0  0  0  0  0  0  0  0  0  0
    4.5874    6.8933   17.4759 C   0  0  0  0  0  0  0  0  0  0  0  0
    5.7562    7.2250   17.2705 O   0  0  0  0  0  0  0  0  0  0  0  0
    4.0089    5.8966   16.7789 N   0  0  0  0  0  0  0  0  0  0  0  0
    4.6101    5.2946   15.5815 C   0  0  1  0  0  0  0  0  0  0  0  0
    4.2179    3.8124   15.4114 C   0  0  1  0  0  0  0  0  0  0  0  0
    4.7383    3.2340   14.0803 C   0  0  1  0  0  0  0  0  0  0  0  0
    4.3432    4.1015   12.8692 C   0  0  1  0  0  0  0  0  0  0  0  0
    4.7680    5.5311   13.0918 N   0  0  1  0  0  0  0  0  0  0  0  0
    4.2240    6.1472   14.3559 C   0  0  1  0  0  0  0  0  0  0  0  0
    7.8096   10.9806   20.3301 H   0  0  0  0  0  0  0  0  0  0  0  0
    7.8147    9.5899   19.2684 H   0  0  0  0  0  0  0  0  0  0  0  0
    6.1405    8.5722   18.7797 H   0  0  0  0  0  0  0  0  0  0  0  0
    0.5766   10.1454   21.2237 H   0  0  0  0  0  0  0  0  0  0  0  0
   -1.7520   10.2655   21.9253 H   0  0  0  0  0  0  0  0  0  0  0  0
   -3.3665    8.5301   21.1979 H   0  0  0  0  0  0  0  0  0  0  0  0
   -2.6036    6.6700   19.7560 H   0  0  0  0  0  0  0  0  0  0  0  0
   -0.2746    6.5543   19.0068 H   0  0  0  0  0  0  0  0  0  0  0  0
    1.8144    6.6744   18.0786 H   0  0  0  0  0  0  0  0  0  0  0  0
    3.1058    5.5963   17.1171 H   0  0  0  0  0  0  0  0  0  0  0  0
    5.6771    5.4259   15.7664 H   0  0  0  0  0  0  0  0  0  0  0  0
    4.6556    3.2435   16.2329 H   0  0  0  0  0  0  0  0  0  0  0  0
    3.1384    3.6837   15.5009 H   0  0  0  0  0  0  0  0  0  0  0  0
    5.8244    3.1443   14.1183 H   0  0  0  0  0  0  0  0  0  0  0  0
    4.3592    2.2220   13.9392 H   0  0  0  0  0  0  0  0  0  0  0  0
    4.8040    3.7197   11.9571 H   0  0  0  0  0  0  0  0  0  0  0  0
    3.2637    4.0682   12.7197 H   0  0  0  0  0  0  0  0  0  0  0  0
    5.7765    5.5821   13.1117 H   0  0  0  0  0  0  0  0  0  0  0  0
    3.1421    6.2682   14.2910 H   0  0  0  0  0  0  0  0  0  0  0  0
    4.6411    7.1492   14.4659 H   0  0  0  0  0  0  0  0  0  0  0  0
    4.4248    6.0845   12.3166 H   0  0  0  0  0  0  0  0  0  0  0  0
  1  2  1  0
  1 25  1  0
  1 26  1  0
  2  3  2  0
  2  4  1  0
  4  5  1  0
  4 27  1  0
  5 15  2  0
  5  6  1  0
  6  7  1  0
  7  8  1  0
  7 14  2  0
  8 13  1  0
  8  9  2  0
  9 10  1  0
  9 28  1  0
 10 11  2  0
 10 29  1  0
 11 12  1  0
 11 30  1  0
 12 13  2  0
 12 31  1  0
 13 32  1  0
 14 15  1  0
 14 33  1  0
 15 16  1  0
 16 17  2  0
 16 18  1  0
 18 19  1  0
 18 34  1  0
 19 24  1  0
 19 20  1  0
 19 35  1  1
 20 21  1  0
 20 36  1  1
 20 37  1  0
 21 22  1  0
 21 38  1  1
 21 39  1  0
 22 23  1  0
 22 40  1  6
 22 41  1  0
 23 24  1  0
 23 42  1  1
 23 45  1  0
 24 43  1  6
 24 44  1  0
M  CHG  1  23   1
M  END
