23882
     RDKit          3D

 45 47  0  0  1  0  0  0  0  0999 V2000
    7.4817   10.0935   19.6263 N   0  0  0  0  0  0  0  0  0  0  0  0
    6.1646   10.0882   19.8295 C   0  0  0  0  0  0  0  0  0  0  0  0
    5.5996   10.9770   20.4608 O   0  0  0  0  0  0  0  0  0  0  0  0
    5.5732    9.0248   19.2602 N   0  0  0  0  0  0  0  0  0  0  0  0
    4.1979    8.6584   19.2665 C   0  0  0  0  0  0  0  0  0  0  0  0
    2.9238    9.3551   20.2302 C   0  0  0  0  0  0  0  0  0  0  0  0
    1.7389    8.2746   19.5801 C   0  0  0  0  0  0  0  0  0  0  0  0
    0.3506    8.3443   20.0367 C   0  0  0  0  0  0  0  0  0  0  0  0
   -0.1015    9.3812   20.8748 C   0  0  0  0  0  0  0  0  0  0  0  0
   -1.4296    9.4545   21.2890 C   0  0  0  0  0  0  0  0  0  0  0  0
   -2.3349    8.4786   20.8818 C   0  0  0  0  0  0  0  0  0  0  0  0
   -1.9058    7.4338   20.0662 C   0  0  0  0  0  0  0  0  0  0  0  0
   -0.5763    7.3698   19.6469 C   0  0  0  0  0  0  0  0  0  0  0  0
    2.3418    7.4328   18.6383 S   0  0  0  0  0  0  0  0  0  0  0  0
    3.7315    7.6167   18.4481 C   0  0  0  0  0  0  0  0  0  0  0  0
    4.5874    6.8933   17.4759 C   0  0  0  0  0  0  0  0  0  0  0  0
    5.7562    7.2250   17.2705 O   0  0  0  0  0  0  0  0  0  0  0  0
    4.0089    5.8966   16.7789 N   0  0  0  0  0  0  0  0  0  0  0  0
    4.6101    5.2946   15.5815 C   0  0  1  0  0  0  0  0  0  0  0  0
    4.2179    3.8124   15.4114 C   0  0  1  0  0  0  0  0  0  0  0  0
    4.7383    3.2340   14.0803 C   0  0  1  0  0  0  0  0  0  0  0  0
    4.3432    4.1015   12.8692 C   0  0  1  0  0  0  0  0  0  0  0  0
    4.7680    5.5311   13.0918 N   0  0  1  0  0  0  0  0  0  0  0  0
    4.2240    6.1472   14.3559 C   0  0  1  0  0  0  0  0  0  0  0  0
    8.0305   10.8505   20.0070 H   0  0  0  0  0  0  0  0  0  0  0  0
    7.9287    9.3554   19.1041 H   0  0  0  0  0  0  0  0  0  0  0  0
    6.1730    8.4035   18.7375 H   0  0  0  0  0  0  0  0  0  0  0  0
    3.0758   10.1684   20.9221 H   0  0  0  0  0  0  0  0  0  0  0  0
    0.5827   10.1419   21.2200 H   0  0  0  0  0  0  0  0  0  0  0  0
   -1.7528   10.2663   21.9240 H   0  0  0  0  0  0  0  0  0  0  0  0
   -3.3672    8.5317   21.1954 H   0  0  0  0  0  0  0  0  0  0  0  0
   -2.6042    6.6711   19.7547 H   0  0  0  0  0  0  0  0  0  0  0  0
   -0.2818    6.5518   19.0070 H   0  0  0  0  0  0  0  0  0  0  0  0
    3.1098    5.5907   17.1233 H   0  0  0  0  0  0  0  0  0  0  0  0
    5.6771    5.4254   15.7663 H   0  0  0  0  0  0  0  0  0  0  0  0
    4.6554    3.2435   16.2329 H   0  0  0  0  0  0  0  0  0  0  0  0
    3.1383    3.6840   15.5006 H   0  0  0  0  0  0  0  0  0  0  0  0
    5.8243    3.1438   14.1183 H   0  0  0  0  0  0  0  0  0  0  0  0
    4.3586    2.2222   13.9395 H   0  0  0  0  0  0  0  0  0  0  0  0
    4.8040    3.7198   11.9570 H   0  0  0  0  0  0  0  0  0  0  0  0
    3.2637    4.0682   12.7198 H   0  0  0  0  0  0  0  0  0  0  0  0
    5.7764    5.5834   13.1104 H   0  0  0  0  0  0  0  0  0  0  0  0
    3.1419    6.2667   14.2905 H   0  0  0  0  0  0  0  0  0  0  0  0
    4.6402    7.1496   14.4656 H   0  0  0  0  0  0  0  0  0  0  0  0
    4.4220    6.0849   12.3178 H   0  0  0  0  0  0  0  0  0  0  0  0
  1  2  1  0
  1 25  1  0
  1 26  1  0
  2  3  2  0
  2  4  1  0
  4  5  1  0
  4 27  1  0
  5 15  2  0
  5  6  1  0
  6  7  2  0
  6 28  1  0
  7  8  1  0
  7 14  1  0
  8 13  1  0
  8  9  2  0
  9 10  1  0
  9 29  1  0
 10 11  2  0
 10 30  1  0
 11 12  1  0
 11 31  1  0
 12 13  2  0
 12 32  1  0
 13 33  1  0
 14 15  1  0
 15 16  1  0
 16 17  2  0
 16 18  1  0
 18 19  1  0
 18 34  1  0
 19 24  1  0
 19 20  1  0
 19 35  1  1
 20 21  1  0
 20 36  1  1
 20 37  1  0
 21 22  1  0
 21 38  1  1
 21 39  1  0
 22 23  1  0
 22 40  1  6
 22 41  1  0
 23 24  1  0
 23 42  1  1
 23 45  1  0
 24 43  1  6
 24 44  1  0
M  CHG  1  23   1
M  END
