ligand_4
     RDKit          3D

 41 43  0  0  1  0  0  0  0  0999 V2000
   -0.8500    9.0821   21.2723 Cl  0  0  0  0  0  0  0  0  0  0  0  0
    0.3118    8.1796   20.3718 C   0  0  0  0  0  0  0  0  0  0  0  0
    1.6192    8.6791   20.2090 C   0  0  0  0  0  0  0  0  0  0  0  0
    2.5705    7.9333   19.4634 C   0  0  0  0  0  0  0  0  0  0  0  0
    2.2061    6.7051   18.8696 C   0  0  0  0  0  0  0  0  0  0  0  0
    3.1563    6.0431   18.1176 O   0  0  0  0  0  0  0  0  0  0  0  0
    3.1829    4.6258   18.2246 C   0  0  1  0  0  0  0  0  0  0  0  0
    4.5671    4.0792   17.8385 C   0  0  1  0  0  0  0  0  0  0  0  0
    4.7864    3.6608   16.3522 C   0  0  1  0  0  0  0  0  0  0  0  0
    5.5013    4.6534   15.3755 C   0  0  1  0  0  0  0  0  0  0  0  0
    6.9760    4.9888   15.7212 C   0  0  1  0  0  0  0  0  0  0  0  0
    7.0985    5.5338   17.0271 O   0  0  0  0  0  0  0  0  0  0  0  0
    7.2095    6.8957   17.1576 C   0  0  0  0  0  0  0  0  0  0  0  0
    8.1320    7.6933   16.4362 C   0  0  0  0  0  0  0  0  0  0  0  0
    8.2948    9.0112   16.7020 N   0  0  0  0  0  0  0  0  0  0  0  0
    7.5397    9.5249   17.6984 C   0  0  0  0  0  0  0  0  0  0  0  0
    6.5944    8.7509   18.4078 C   0  0  0  0  0  0  0  0  0  0  0  0
    5.8893    9.4348   19.4270 N   0  0  0  0  0  0  0  0  0  0  0  0
    4.6300    9.2985   19.8592 C   0  0  0  0  0  0  0  0  0  0  0  0
    4.1994   10.0568   20.7195 O   0  0  0  0  0  0  0  0  0  0  0  0
    3.9155    8.3314   19.2643 N   0  0  0  0  0  0  0  0  0  0  0  0
    6.4425    7.4277   18.1376 N   0  0  0  0  0  0  0  0  0  0  0  0
    0.8935    6.2162   19.0471 C   0  0  0  0  0  0  0  0  0  0  0  0
   -0.0491    6.9460   19.7979 C   0  0  0  0  0  0  0  0  0  0  0  0
    1.8596    9.6309   20.6557 H   0  0  0  0  0  0  0  0  0  0  0  0
    3.0049    4.3676   19.2711 H   0  0  0  0  0  0  0  0  0  0  0  0
    2.3859    4.1670   17.6409 H   0  0  0  0  0  0  0  0  0  0  0  0
    5.3321    4.7459   18.2310 H   0  0  0  0  0  0  0  0  0  0  0  0
    4.6867    3.1653   18.4216 H   0  0  0  0  0  0  0  0  0  0  0  0
    5.3812    2.7476   16.3626 H   0  0  0  0  0  0  0  0  0  0  0  0
    3.8222    3.3708   15.9268 H   0  0  0  0  0  0  0  0  0  0  0  0
    5.4748    4.2424   14.3640 H   0  0  0  0  0  0  0  0  0  0  0  0
    4.9287    5.5871   15.3311 H   0  0  0  0  0  0  0  0  0  0  0  0
    7.5754    4.0794   15.7044 H   0  0  0  0  0  0  0  0  0  0  0  0
    7.3908    5.6471   14.9587 H   0  0  0  0  0  0  0  0  0  0  0  0
    8.7817    7.2766   15.6815 H   0  0  0  0  0  0  0  0  0  0  0  0
    7.6843   10.5712   17.9297 H   0  0  0  0  0  0  0  0  0  0  0  0
    6.3572   10.2297   19.8356 H   0  0  0  0  0  0  0  0  0  0  0  0
    4.4346    7.7314   18.6327 H   0  0  0  0  0  0  0  0  0  0  0  0
    0.5897    5.2829   18.5994 H   0  0  0  0  0  0  0  0  0  0  0  0
   -1.0565    6.5741   19.9231 H   0  0  0  0  0  0  0  0  0  0  0  0
  1  2  1  0
  2 24  1  0
  2  3  2  0
  3  4  1  0
  3 25  1  0
  4 21  1  0
  4  5  2  0
  5  6  1  0
  5 23  1  0
  6  7  1  0
  7  8  1  0
  7 26  1  1
  7 27  1  0
  8  9  1  0
  8 28  1  1
  8 29  1  0
  9 10  1  0
  9 30  1  1
  9 31  1  0
 10 11  1  0
 10 32  1  6
 10 33  1  0
 11 12  1  0
 11 34  1  1
 11 35  1  0
 12 13  1  0
 13 22  1  0
 13 14  2  0
 14 15  1  0
 14 36  1  0
 15 16  2  0
 16 17  1  0
 16 37  1  0
 17 18  1  0
 17 22  2  0
 18 19  1  0
 18 38  1  0
 19 20  2  0
 19 21  1  0
 21 39  1  0
 23 24  2  0
 23 40  1  0
 24 41  1  0
M  END
