ligand_7
     RDKit          3D

 45 47  0  0  1  0  0  0  0  0999 V2000
   -0.9862    9.2656   21.2927 Cl  0  0  0  0  0  0  0  0  0  0  0  0
    0.1563    8.3289   20.4006 C   0  0  0  0  0  0  0  0  0  0  0  0
    1.4920    8.7579   20.2930 C   0  0  0  0  0  0  0  0  0  0  0  0
    2.4542    7.9649   19.6191 C   0  0  0  0  0  0  0  0  0  0  0  0
    2.0551    6.7326   19.0423 C   0  0  0  0  0  0  0  0  0  0  0  0
    3.0103    5.9256   18.4619 O   0  0  0  0  0  0  0  0  0  0  0  0
    2.8827    4.5267   18.7247 C   0  0  1  0  0  0  0  0  0  0  0  0
    4.0386    3.7365   18.1039 C   0  0  1  0  0  0  0  0  0  0  0  0
    3.7852    3.1966   16.7135 C   0  0  1  0  0  0  0  0  0  0  0  0
    5.0259    3.0107   15.7995 C   0  0  1  0  0  0  0  0  0  0  0  0
    6.5024    3.4272   16.0650 C   0  0  1  0  0  0  0  0  0  0  0  0
    6.9515    4.8982   15.8453 C   0  0  1  0  0  0  0  0  0  0  0  0
    6.5750    5.6968   16.9571 O   0  0  0  0  0  0  0  0  0  0  0  0
    6.9811    7.0033   17.1642 C   0  0  0  0  0  0  0  0  0  0  0  0
    8.0857    7.7306   16.6098 C   0  0  0  0  0  0  0  0  0  0  0  0
    8.3295    9.0122   16.9967 N   0  0  0  0  0  0  0  0  0  0  0  0
    7.5258    9.5613   17.9309 C   0  0  0  0  0  0  0  0  0  0  0  0
    6.4681    8.8494   18.5275 C   0  0  0  0  0  0  0  0  0  0  0  0
    5.7380    9.5607   19.5218 N   0  0  0  0  0  0  0  0  0  0  0  0
    4.5023    9.3688   20.0131 C   0  0  0  0  0  0  0  0  0  0  0  0
    4.0669   10.1255   20.8872 O   0  0  0  0  0  0  0  0  0  0  0  0
    3.8237    8.3322   19.4900 N   0  0  0  0  0  0  0  0  0  0  0  0
    6.2187    7.5738   18.1364 N   0  0  0  0  0  0  0  0  0  0  0  0
    9.1593    7.1413   15.8218 C   0  0  0  0  0  0  0  0  0  0  0  0
   10.0459    6.6821   15.2325 N   0  0  0  0  0  0  0  0  0  0  0  0
    0.6921    6.3500   19.0952 C   0  0  0  0  0  0  0  0  0  0  0  0
   -0.2481    7.1339   19.7854 C   0  0  0  0  0  0  0  0  0  0  0  0
    1.7496    9.6966   20.7539 H   0  0  0  0  0  0  0  0  0  0  0  0
    2.9388    4.4097   19.8058 H   0  0  0  0  0  0  0  0  0  0  0  0
    1.9362    4.1074   18.3920 H   0  0  0  0  0  0  0  0  0  0  0  0
    4.8702    4.4158   18.0729 H   0  0  0  0  0  0  0  0  0  0  0  0
    4.2888    2.8680   18.7138 H   0  0  0  0  0  0  0  0  0  0  0  0
    3.2350    2.2579   16.7963 H   0  0  0  0  0  0  0  0  0  0  0  0
    3.0770    3.8645   16.2156 H   0  0  0  0  0  0  0  0  0  0  0  0
    4.8754    2.3934   14.9164 H   0  0  0  0  0  0  0  0  0  0  0  0
    4.8091    3.8921   15.1933 H   0  0  0  0  0  0  0  0  0  0  0  0
    6.8720    3.0383   16.9961 H   0  0  0  0  0  0  0  0  0  0  0  0
    7.0770    2.8876   15.3081 H   0  0  0  0  0  0  0  0  0  0  0  0
    8.0329    4.8532   15.7593 H   0  0  0  0  0  0  0  0  0  0  0  0
    6.5736    5.3241   14.9164 H   0  0  0  0  0  0  0  0  0  0  0  0
    7.7376   10.5812   18.2208 H   0  0  0  0  0  0  0  0  0  0  0  0
    6.1797   10.4049   19.8750 H   0  0  0  0  0  0  0  0  0  0  0  0
    4.3399    7.7542   18.8303 H   0  0  0  0  0  0  0  0  0  0  0  0
    0.3438    5.4419   18.6234 H   0  0  0  0  0  0  0  0  0  0  0  0
   -1.2747    6.8044   19.8495 H   0  0  0  0  0  0  0  0  0  0  0  0
  1  2  1  0
  2 27  1  0
  2  3  2  0
  3  4  1  0
  3 28  1  0
  4 22  1  0
  4  5  2  0
  5  6  1  0
  5 26  1  0
  6  7  1  0
  7  8  1  0
  7 29  1  1
  7 30  1  0
  8  9  1  0
  8 31  1  6
  8 32  1  0
  9 10  1  0
  9 33  1  1
  9 34  1  0
 10 11  1  0
 10 35  1  6
 10 36  1  0
 11 12  1  0
 11 37  1  1
 11 38  1  0
 12 13  1  0
 12 39  1  6
 12 40  1  0
 13 14  1  0
 14 23  1  0
 14 15  2  0
 15 16  1  0
 15 24  1  0
 16 17  2  0
 17 18  1  0
 17 41  1  0
 18 19  1  0
 18 23  2  0
 19 20  1  0
 19 42  1  0
 20 21  2  0
 20 22  1  0
 22 43  1  0
 24 25  3  0
 26 27  2  0
 26 44  1  0
 27 45  1  0
M  END
