ligand_5
     RDKit          3D

 39 41  0  0  1  0  0  0  0  0999 V2000
   -1.0460    9.2600   21.2900 Cl  0  0  0  0  0  0  0  0  0  0  0  0
    0.1090    8.2940   20.4350 C   0  0  0  0  0  0  0  0  0  0  0  0
    1.4440    8.7930   20.3060 C   0  0  0  0  0  0  0  0  0  0  0  0
    2.4340    8.0080   19.5980 C   0  0  0  0  0  0  0  0  0  0  0  0
    2.0770    6.7300   19.0270 C   0  0  0  0  0  0  0  0  0  0  0  0
    3.1330    6.0570   18.3540 O   0  0  0  0  0  0  0  0  0  0  0  0
    3.3160    4.6560   18.5660 C   0  0  1  0  0  0  0  0  0  0  0  0
    4.7046    4.2458   17.7017 C   0  0  1  0  0  0  0  0  0  0  0  0
    5.2543    4.7010   16.1415 C   0  0  1  0  0  0  0  0  0  0  0  0
    6.8630    5.0290   15.6600 C   0  0  1  0  0  0  0  0  0  0  0  0
    6.7680    5.5460   16.9870 O   0  0  0  0  0  0  0  0  0  0  0  0
    7.0520    6.9050   17.2770 C   0  0  0  0  0  0  0  0  0  0  0  0
    8.0940    7.6420   16.5540 C   0  0  0  0  0  0  0  0  0  0  0  0
    8.3700    8.9870   16.8630 N   0  0  0  0  0  0  0  0  0  0  0  0
    7.6460    9.6420   17.8770 C   0  0  0  0  0  0  0  0  0  0  0  0
    6.6080    8.9360   18.6090 C   0  0  0  0  0  0  0  0  0  0  0  0
    5.8760    9.5560   19.6200 N   0  0  0  0  0  0  0  0  0  0  0  0
    4.5840    9.3980   20.0670 C   0  0  0  0  0  0  0  0  0  0  0  0
    4.1980   10.0980   21.0080 O   0  0  0  0  0  0  0  0  0  0  0  0
    3.7380    8.4450   19.4450 N   0  0  0  0  0  0  0  0  0  0  0  0
    6.3240    7.5750   18.3000 N   0  0  0  0  0  0  0  0  0  0  0  0
    8.9154    7.0029   15.4738 C   0  0  0  0  0  0  0  0  0  0  0  0
    9.5327    6.4829   14.6448 N   0  0  0  0  0  0  0  0  0  0  0  0
    0.6990    6.2490   19.1790 C   0  0  0  0  0  0  0  0  0  0  0  0
   -0.2800    7.0300   19.8830 C   0  0  0  0  0  0  0  0  0  0  0  0
    1.6994    9.7490   20.7396 H   0  0  0  0  0  0  0  0  0  0  0  0
    3.4207    4.4249   19.6269 H   0  0  0  0  0  0  0  0  0  0  0  0
    2.4556    4.1102   18.1782 H   0  0  0  0  0  0  0  0  0  0  0  0
    5.4769    4.4691   18.4366 H   0  0  0  0  0  0  0  0  0  0  0  0
    4.7264    3.1564   17.6953 H   0  0  0  0  0  0  0  0  0  0  0  0
    4.8455    3.9818   15.4320 H   0  0  0  0  0  0  0  0  0  0  0  0
    4.6923    5.6107   15.9166 H   0  0  0  0  0  0  0  0  0  0  0  0
    7.5057    4.1526   15.5755 H   0  0  0  0  0  0  0  0  0  0  0  0
    6.9476    5.7477   14.8440 H   0  0  0  0  0  0  0  0  0  0  0  0
    7.8913   10.6741   18.0812 H   0  0  0  0  0  0  0  0  0  0  0  0
    6.3407   10.3200   20.0841 H   0  0  0  0  0  0  0  0  0  0  0  0
    4.2517    7.8720   18.7849 H   0  0  0  0  0  0  0  0  0  0  0  0
    0.4127    5.2990   18.7541 H   0  0  0  0  0  0  0  0  0  0  0  0
   -1.2939    6.6750   19.9940 H   0  0  0  0  0  0  0  0  0  0  0  0
  1  2  1  0
  2 25  1  0
  2  3  2  0
  3  4  1  0
  3 26  1  0
  4 20  1  0
  4  5  2  0
  5  6  1  0
  5 24  1  0
  6  7  1  0
  7  8  1  0
  7 27  1  1
  7 28  1  0
  8  9  1  0
  8 29  1  1
  8 30  1  0
  9 10  1  0
  9 31  1  6
  9 32  1  0
 10 11  1  0
 10 33  1  1
 10 34  1  0
 11 12  1  0
 12 21  1  0
 12 13  2  0
 13 14  1  0
 13 22  1  0
 14 15  2  0
 15 16  1  0
 15 35  1  0
 16 17  1  0
 16 21  2  0
 17 18  1  0
 17 36  1  0
 18 19  2  0
 18 20  1  0
 20 37  1  0
 22 23  3  0
 24 25  2  0
 24 38  1  0
 25 39  1  0
M  END
