23708_cys
     RDKit          3D

 52 56  0  0  1  0  0  0  0  0999 V2000
    8.7499    9.1122   17.0454 O   0  0  0  0  0  0  0  0  0  0  0  0
    7.7868    8.4086   17.3040 C   0  0  0  0  0  0  0  0  0  0  0  0
    7.5779    7.1693   16.8413 N   0  0  0  0  0  0  0  0  0  0  0  0
    8.3689    6.3364   16.0194 C   0  0  0  0  0  0  0  0  0  0  0  0
    9.7668    6.4147   16.0004 C   0  0  0  0  0  0  0  0  0  0  0  0
   10.5150    5.4886   15.2816 C   0  0  0  0  0  0  0  0  0  0  0  0
    9.8750    4.4611   14.5948 C   0  0  0  0  0  0  0  0  0  0  0  0
    8.4863    4.3866   14.5828 C   0  0  0  0  0  0  0  0  0  0  0  0
    7.7150    5.3324   15.2703 C   0  0  0  0  0  0  0  0  0  0  0  0
    6.3049    5.3200   15.1815 N   0  0  0  0  0  0  0  0  0  0  0  0
    5.5929    4.0459   15.0839 C   0  0  1  0  0  0  0  0  0  0  0  0
    4.0683    4.2215   15.2729 C   0  0  1  0  0  0  0  0  0  0  0  0
    3.5568    5.3004   14.3496 N   0  0  1  0  0  0  0  0  0  0  0  0
    4.2943    6.6069   14.5125 C   0  0  1  0  0  0  0  0  0  0  0  0
    5.7975    6.3804   14.3095 C   0  0  1  0  0  0  0  0  0  0  0  0
    6.7024    8.8930   18.1726 C   0  0  0  0  0  0  0  0  0  0  0  0
    6.7541   10.0384   18.9262 C   0  0  0  0  0  0  0  0  0  0  0  0
    5.2657   10.3084   19.7843 S   0  0  0  0  0  0  0  0  0  0  0  0
    4.6265    8.8337   19.0533 C   0  0  0  0  0  0  0  0  0  0  0  0
    3.2706    8.3676   19.2450 C   0  0  0  0  0  0  0  0  0  0  0  0
    2.3586    9.0680   20.0544 C   0  0  0  0  0  0  0  0  0  0  0  0
    1.0320    8.6430   20.1908 C   0  0  0  0  0  0  0  0  0  0  0  0
    0.6250    7.5030   19.5069 C   0  0  0  0  0  0  0  0  0  0  0  0
   -0.6251    6.9563   19.4993 O   0  0  0  0  0  0  0  0  0  0  0  0
   -0.5992    5.8116   18.6486 C   0  0  1  0  0  0  0  0  0  0  0  0
    0.8289    5.6246   18.1023 C   0  0  1  0  0  0  0  0  0  0  0  0
    1.5146    6.8020   18.7268 C   0  0  0  0  0  0  0  0  0  0  0  0
    2.8359    7.2053   18.5813 C   0  0  0  0  0  0  0  0  0  0  0  0
    5.4951    8.2123   18.2661 N   0  0  0  0  0  0  0  0  0  0  0  0
    6.6730    6.7622   17.0262 H   0  0  0  0  0  0  0  0  0  0  0  0
   10.2913    7.1772   16.5562 H   0  0  0  0  0  0  0  0  0  0  0  0
   11.5928    5.5594   15.2661 H   0  0  0  0  0  0  0  0  0  0  0  0
   10.4574    3.7160   14.0729 H   0  0  0  0  0  0  0  0  0  0  0  0
    8.0275    3.5874   14.0234 H   0  0  0  0  0  0  0  0  0  0  0  0
    5.7941    3.6142   14.1028 H   0  0  0  0  0  0  0  0  0  0  0  0
    5.9587    3.3291   15.8197 H   0  0  0  0  0  0  0  0  0  0  0  0
    3.5500    3.2844   15.0690 H   0  0  0  0  0  0  0  0  0  0  0  0
    3.8458    4.4913   16.3063 H   0  0  0  0  0  0  0  0  0  0  0  0
    3.6750    4.9846   13.3976 H   0  0  0  0  0  0  0  0  0  0  0  0
    3.9076    7.3317   13.7958 H   0  0  0  0  0  0  0  0  0  0  0  0
    4.0772    7.0031   15.5040 H   0  0  0  0  0  0  0  0  0  0  0  0
    6.3539    7.3067   14.4584 H   0  0  0  0  0  0  0  0  0  0  0  0
    5.9866    6.0777   13.2790 H   0  0  0  0  0  0  0  0  0  0  0  0
    7.5797   10.7310   19.0025 H   0  0  0  0  0  0  0  0  0  0  0  0
    2.6689    9.9541   20.5886 H   0  0  0  0  0  0  0  0  0  0  0  0
    0.3380    9.1866   20.8147 H   0  0  0  0  0  0  0  0  0  0  0  0
   -0.8974    4.9369   19.2275 H   0  0  0  0  0  0  0  0  0  0  0  0
   -1.3141    5.9295   17.8338 H   0  0  0  0  0  0  0  0  0  0  0  0
    1.2741    4.6812   18.4197 H   0  0  0  0  0  0  0  0  0  0  0  0
    0.8613    5.6914   17.0144 H   0  0  0  0  0  0  0  0  0  0  0  0
    3.4917    6.6158   17.9587 H   0  0  0  0  0  0  0  0  0  0  0  0
    2.5733    5.4496   14.5248 H   0  0  0  0  0  0  0  0  0  0  0  0
  1  2  2  0
  2  3  1  0
  2 16  1  0
  3  4  1  0
  3 30  1  0
  4  9  1  0
  4  5  2  0
  5  6  1  0
  5 31  1  0
  6  7  2  0
  6 32  1  0
  7  8  1  0
  7 33  1  0
  8  9  2  0
  8 34  1  0
  9 10  1  0
 10 15  1  0
 10 11  1  0
 11 12  1  0
 11 35  1  6
 11 36  1  0
 12 13  1  0
 12 37  1  6
 12 38  1  0
 13 14  1  0
 13 39  1  6
 13 52  1  0
 14 15  1  0
 14 40  1  6
 14 41  1  0
 15 42  1  1
 15 43  1  0
 16 29  1  0
 16 17  2  0
 17 18  1  0
 17 44  1  0
 18 19  1  0
 19 20  1  0
 19 29  2  0
 20 28  1  0
 20 21  2  0
 21 22  1  0
 21 45  1  0
 22 23  2  0
 22 46  1  0
 23 27  1  0
 23 24  1  0
 24 25  1  0
 25 26  1  0
 25 47  1  1
 25 48  1  0
 26 27  1  0
 26 49  1  6
 26 50  1  0
 27 28  2  0
 28 51  1  0
M  CHG  1  13   1
M  END
